ETAM-pdb3zr8-X-LYS-95:MSM-pdb3zr8-X-MET-78
     RDKit          3D

 20 18  0  0  0  0  0  0  0  0999 V2000
    1.2320    0.8702    0.0000 C   0  0  0  0  0  0  0  0  0  0  0  0
    1.0366    1.6960   -0.5445 H   0  0  0  0  0  0  0  0  0  0  0  0
    1.9771    0.3637   -0.4516 H   0  0  0  0  0  0  0  0  0  0  0  0
    1.5576    1.1704    0.9960 H   0  0  0  0  0  0  0  0  0  0  0  0
    0.0000    0.0000    0.0000 C   0  0  0  0  0  0  0  0  0  0  0  0
    0.0164   -0.5889   -0.8162 H   0  0  0  0  0  0  0  0  0  0  0  0
    0.0167   -0.5890    0.8169 H   0  0  0  0  0  0  0  0  0  0  0  0
   -1.2320    0.8011    0.0000 N   0  0  0  0  0  4  0  0  0  0  0  0
   -1.5671    0.9115   -0.9393 H   0  0  0  0  0  0  0  0  0  0  0  0
   -1.9362    0.3428    0.5475 H   0  0  0  0  0  0  0  0  0  0  0  0
   -1.0499    1.7065    0.3921 H   0  0  0  0  0  0  0  0  0  0  0  0
    2.9773   -2.6823   -3.4960 C   0  0  0  0  0  0  0  0  0  0  0  0
    2.4235   -3.4754   -3.8297 H   0  0  0  0  0  0  0  0  0  0  0  0
    2.9748   -2.7496   -2.4752 H   0  0  0  0  0  0  0  0  0  0  0  0
    3.9999   -2.7834   -3.8594 H   0  0  0  0  0  0  0  0  0  0  0  0
    2.2629   -1.1408   -4.0303 S   0  0  0  0  0  0  0  0  0  0  0  0
    2.6162   -0.1194   -2.6087 C   0  0  0  0  0  0  0  0  0  0  0  0
    1.8318   -0.1239   -1.9856 H   0  0  0  0  0  0  0  0  0  0  0  0
    3.4200   -0.4749   -2.1281 H   0  0  0  0  0  0  0  0  0  0  0  0
    2.7979    0.8211   -2.9038 H   0  0  0  0  0  0  0  0  0  0  0  0
  1  5  1  0
  5  8  1  0
  1  2  1  0
  1  3  1  0
  1  4  1  0
  5  6  1  0
  5  7  1  0
  8  9  1  0
  8 10  1  0
  8 11  1  0
 12 16  1  0
 16 17  1  0
 12 13  1  0
 12 14  1  0
 12 15  1  0
 17 18  1  0
 17 19  1  0
 17 20  1  0
M  CHG  1   8   1
M  END
>  <PDB_ID>  (1) 
pdb3zr8

>  <RESIDUE_NAME>  (1) 
LYS   MET

>  <FRAG_NAME>  (1) 
ETAM   MSM

>  <FRAG_ATOM_NUM>  (1) 
fragi: 11  fragj: 9

>  <atom.prop.CHAIN_ID>  (1) 
A A A A A A A A A A A Z Z Z Z Z Z Z Z Z

>  <atom.prop.IS_HEAVY_ATOM>  (1) 
1 0 0 0 1 0 0 1 0 0 0 1 0 0 0 1 1 0 0 0

>  <DIFUSE_FUNC_ATOM>  (1) 
n/a

>  <FINAL_SINGLE_POINT_ENERGY>  (1) 
0

>  <NONCOV_INTER_ENERGY_QM>  (1) 
0

>  <FF_Energy>  (1) 
17.36

>  <QM_Energy>  (1) 
4.12

>  <source>  (1) 
ETAM_MSM

>  <Index>  (1) 
4

$$$$
ETAM-pdb4egu-B-LYS-10:MSM-pdb4egu-B-MET-4
     RDKit          3D

 20 18  0  0  0  0  0  0  0  0999 V2000
    1.2686    0.8486    0.0000 C   0  0  0  0  0  0  0  0  0  0  0  0
    1.3399    1.2867   -0.8626 H   0  0  0  0  0  0  0  0  0  0  0  0
    2.0272    0.2602    0.1390 H   0  0  0  0  0  0  0  0  0  0  0  0
    1.2539    1.6049    0.7849 H   0  0  0  0  0  0  0  0  0  0  0  0
    0.0000    0.0000    0.0000 C   0  0  0  0  0  0  0  0  0  0  0  0
    0.0005   -0.5596   -0.7920 H   0  0  0  0  0  0  0  0  0  0  0  0
    0.0003   -0.5574    0.7941 H   0  0  0  0  0  0  0  0  0  0  0  0
   -1.2686    0.7856    0.0000 N   0  0  0  0  0  4  0  0  0  0  0  0
   -1.3064    1.3025    0.7239 H   0  0  0  0  0  0  0  0  0  0  0  0
   -1.3063    1.3014   -0.7253 H   0  0  0  0  0  0  0  0  0  0  0  0
   -2.0489    0.1747   -0.1299 H   0  0  0  0  0  0  0  0  0  0  0  0
   -4.4622    1.1863   -3.2460 C   0  0  0  0  0  0  0  0  0  0  0  0
   -5.2009    0.8568   -3.7820 H   0  0  0  0  0  0  0  0  0  0  0  0
   -3.6197    0.9626   -3.6713 H   0  0  0  0  0  0  0  0  0  0  0  0
   -4.5404    2.2704   -3.1636 H   0  0  0  0  0  0  0  0  0  0  0  0
   -4.5177    0.3509   -1.6471 S   0  0  0  0  0  0  0  0  0  0  0  0
   -6.2704    0.4139   -1.2853 C   0  0  0  0  0  0  0  0  0  0  0  0
   -6.4289   -0.0099   -0.4380 H   0  0  0  0  0  0  0  0  0  0  0  0
   -6.5482    1.3321   -1.2498 H   0  0  0  0  0  0  0  0  0  0  0  0
   -6.7485   -0.0479   -1.9778 H   0  0  0  0  0  0  0  0  0  0  0  0
  1  5  1  0
  5  8  1  0
  1  2  1  0
  1  3  1  0
  1  4  1  0
  5  6  1  0
  5  7  1  0
  8  9  1  0
  8 10  1  0
  8 11  1  0
 12 16  1  0
 16 17  1  0
 12 13  1  0
 12 14  1  0
 12 15  1  0
 17 18  1  0
 17 19  1  0
 17 20  1  0
M  CHG  1   8   1
M  END
>  <PDB_ID>  (2) 
pdb4egu

>  <RESIDUE_NAME>  (2) 
LYS   MET

>  <FRAG_NAME>  (2) 
ETAM   MSM

>  <FRAG_ATOM_NUM>  (2) 
fragi: 11  fragj: 9

>  <atom.prop.CHAIN_ID>  (2) 
A A A A A A A A A A A Z Z Z Z Z Z Z Z Z

>  <atom.prop.IS_HEAVY_ATOM>  (2) 
1 0 0 0 1 0 0 1 0 0 0 1 0 0 0 1 1 0 0 0

>  <DIFUSE_FUNC_ATOM>  (2) 
n/a

>  <FINAL_SINGLE_POINT_ENERGY>  (2) 
0

>  <NONCOV_INTER_ENERGY_QM>  (2) 
0

>  <FF_Energy>  (2) 
-4.83

>  <QM_Energy>  (2) 
-12.26

>  <source>  (2) 
ETAM_MSM

>  <Index>  (2) 
5

$$$$
ETAM-pdb1a26-A-LYS-1004:MSM-pdb1a26-A-MET-675
     RDKit          3D

 20 18  0  0  0  0  0  0  0  0999 V2000
    1.2348    0.8644    0.0000 C   0  0  0  0  0  0  0  0  0  0  0  0
    1.2320    1.4244    0.8239 H   0  0  0  0  0  0  0  0  0  0  0  0
    1.2169    1.4444   -0.8095 H   0  0  0  0  0  0  0  0  0  0  0  0
    2.1367    0.2526   -0.0150 H   0  0  0  0  0  0  0  0  0  0  0  0
    0.0000    0.0000    0.0000 C   0  0  0  0  0  0  0  0  0  0  0  0
   -0.0040   -0.5757   -0.8158 H   0  0  0  0  0  0  0  0  0  0  0  0
   -0.0044   -0.5752    0.8161 H   0  0  0  0  0  0  0  0  0  0  0  0
   -1.2348    0.8471    0.0000 N   0  0  0  0  0  4  0  0  0  0  0  0
   -1.8403    0.5424   -0.7324 H   0  0  0  0  0  0  0  0  0  0  0  0
   -1.6951    0.7541    0.8805 H   0  0  0  0  0  0  0  0  0  0  0  0
   -0.9776    1.8000   -0.1478 H   0  0  0  0  0  0  0  0  0  0  0  0
   -2.0522   -2.3055   -4.9577 C   0  0  0  0  0  0  0  0  0  0  0  0
   -2.0946   -3.3342   -5.0037 H   0  0  0  0  0  0  0  0  0  0  0  0
   -2.0086   -2.0001   -5.9413 H   0  0  0  0  0  0  0  0  0  0  0  0
   -2.9809   -1.9390   -4.5203 H   0  0  0  0  0  0  0  0  0  0  0  0
   -0.5676   -1.7753   -4.0665 S   0  0  0  0  0  0  0  0  0  0  0  0
   -1.1510   -0.2501   -3.1070 C   0  0  0  0  0  0  0  0  0  0  0  0
   -1.0792   -0.4718   -2.1500 H   0  0  0  0  0  0  0  0  0  0  0  0
   -0.5532    0.4904   -3.3603 H   0  0  0  0  0  0  0  0  0  0  0  0
   -2.0832   -0.0823   -3.3791 H   0  0  0  0  0  0  0  0  0  0  0  0
  1  5  1  0
  5  8  1  0
  1  2  1  0
  1  3  1  0
  1  4  1  0
  5  6  1  0
  5  7  1  0
  8  9  1  0
  8 10  1  0
  8 11  1  0
 12 16  1  0
 16 17  1  0
 12 13  1  0
 12 14  1  0
 12 15  1  0
 17 18  1  0
 17 19  1  0
 17 20  1  0
M  CHG  1   8   1
M  END
>  <PDB_ID>  (3) 
pdb1a26

>  <RESIDUE_NAME>  (3) 
LYS   MET

>  <FRAG_NAME>  (3) 
ETAM   MSM

>  <FRAG_ATOM_NUM>  (3) 
fragi: 11  fragj: 9

>  <atom.prop.CHAIN_ID>  (3) 
A A A A A A A A A A A Z Z Z Z Z Z Z Z Z

>  <atom.prop.IS_HEAVY_ATOM>  (3) 
1 0 0 0 1 0 0 1 0 0 0 1 0 0 0 1 1 0 0 0

>  <DIFUSE_FUNC_ATOM>  (3) 
n/a

>  <FINAL_SINGLE_POINT_ENERGY>  (3) 
0

>  <NONCOV_INTER_ENERGY_QM>  (3) 
0

>  <FF_Energy>  (3) 
8.49

>  <QM_Energy>  (3) 
0.74

>  <source>  (3) 
ETAM_MSM

>  <Index>  (3) 
15

$$$$
ETAM-pdb1a30-B-LYS-20:MSM-pdb1a30-B-MET-36
     RDKit          3D

 20 18  0  0  0  0  0  0  0  0999 V2000
    1.2179    0.8857    0.0000 C   0  0  0  0  0  0  0  0  0  0  0  0
    1.1490    1.5284   -0.7554 H   0  0  0  0  0  0  0  0  0  0  0  0
    2.0286    0.3191   -0.0993 H   0  0  0  0  0  0  0  0  0  0  0  0
    1.2905    1.4452    0.9327 H   0  0  0  0  0  0  0  0  0  0  0  0
    0.0000    0.0000    0.0000 C   0  0  0  0  0  0  0  0  0  0  0  0
    0.0111   -0.5738   -0.8166 H   0  0  0  0  0  0  0  0  0  0  0  0
    0.0108   -0.5734    0.8167 H   0  0  0  0  0  0  0  0  0  0  0  0
   -1.2179    0.8314    0.0000 N   0  0  0  0  0  4  0  0  0  0  0  0
   -1.0084    1.7394   -0.3689 H   0  0  0  0  0  0  0  0  0  0  0  0
   -1.9220    0.4001   -0.5667 H   0  0  0  0  0  0  0  0  0  0  0  0
   -1.5621    0.9279    0.9366 H   0  0  0  0  0  0  0  0  0  0  0  0
   -2.2860   -1.8467   -3.8788 C   0  0  0  0  0  0  0  0  0  0  0  0
   -1.5075   -2.2838   -4.4027 H   0  0  0  0  0  0  0  0  0  0  0  0
   -3.0845   -1.8830   -4.5370 H   0  0  0  0  0  0  0  0  0  0  0  0
   -2.5199   -2.4845   -3.0264 H   0  0  0  0  0  0  0  0  0  0  0  0
   -1.8934   -0.1567   -3.4451 S   0  0  0  0  0  0  0  0  0  0  0  0
   -3.4618    0.4227   -2.8062 C   0  0  0  0  0  0  0  0  0  0  0  0
   -3.3646    1.3645   -2.4804 H   0  0  0  0  0  0  0  0  0  0  0  0
   -4.1516    0.3925   -3.5308 H   0  0  0  0  0  0  0  0  0  0  0  0
   -3.7531   -0.1624   -2.0470 H   0  0  0  0  0  0  0  0  0  0  0  0
  1  5  1  0
  5  8  1  0
  1  2  1  0
  1  3  1  0
  1  4  1  0
  5  6  1  0
  5  7  1  0
  8  9  1  0
  8 10  1  0
  8 11  1  0
 12 16  1  0
 16 17  1  0
 12 13  1  0
 12 14  1  0
 12 15  1  0
 17 18  1  0
 17 19  1  0
 17 20  1  0
M  CHG  1   8   1
M  END
>  <PDB_ID>  (4) 
pdb1a30

>  <RESIDUE_NAME>  (4) 
LYS   MET

>  <FRAG_NAME>  (4) 
ETAM   MSM

>  <FRAG_ATOM_NUM>  (4) 
fragi: 11  fragj: 9

>  <atom.prop.CHAIN_ID>  (4) 
A A A A A A A A A A A Z Z Z Z Z Z Z Z Z

>  <atom.prop.IS_HEAVY_ATOM>  (4) 
1 0 0 0 1 0 0 1 0 0 0 1 0 0 0 1 1 0 0 0

>  <DIFUSE_FUNC_ATOM>  (4) 
n/a

>  <FINAL_SINGLE_POINT_ENERGY>  (4) 
0

>  <NONCOV_INTER_ENERGY_QM>  (4) 
0

>  <FF_Energy>  (4) 
-4.19

>  <QM_Energy>  (4) 
-10.31

>  <source>  (4) 
ETAM_MSM

>  <Index>  (4) 
16

$$$$
ETAM-pdb11ba-B-LYS-41:MSM-pdb11ba-B-MET-35
     RDKit          3D

 20 18  0  0  0  0  0  0  0  0999 V2000
    1.2423    0.8945    0.0000 C   0  0  0  0  0  0  0  0  0  0  0  0
    1.3425    1.2932    0.8996 H   0  0  0  0  0  0  0  0  0  0  0  0
    1.1282    1.5916   -0.6917 H   0  0  0  0  0  0  0  0  0  0  0  0
    2.1341    0.3111   -0.2290 H   0  0  0  0  0  0  0  0  0  0  0  0
    0.0000    0.0000    0.0000 C   0  0  0  0  0  0  0  0  0  0  0  0
    0.0132   -0.5698   -0.8167 H   0  0  0  0  0  0  0  0  0  0  0  0
    0.0129   -0.5705    0.8168 H   0  0  0  0  0  0  0  0  0  0  0  0
   -1.2423    0.8337    0.0000 N   0  0  0  0  0  4  0  0  0  0  0  0
   -1.0650    1.6863    0.4879 H   0  0  0  0  0  0  0  0  0  0  0  0
   -1.5038    1.0324   -0.9431 H   0  0  0  0  0  0  0  0  0  0  0  0
   -1.9753    0.3301    0.4544 H   0  0  0  0  0  0  0  0  0  0  0  0
    1.1268    4.6413    1.2651 C   0  0  0  0  0  0  0  0  0  0  0  0
    1.1277    3.8982    1.9877 H   0  0  0  0  0  0  0  0  0  0  0  0
    0.8821    5.5001    1.7893 H   0  0  0  0  0  0  0  0  0  0  0  0
    2.1545    4.7559    0.9203 H   0  0  0  0  0  0  0  0  0  0  0  0
   -0.0494    4.3022   -0.0208 S   0  0  0  0  0  0  0  0  0  0  0  0
   -0.3247    5.9173   -0.7432 C   0  0  0  0  0  0  0  0  0  0  0  0
   -1.0335    6.4003   -0.2259 H   0  0  0  0  0  0  0  0  0  0  0  0
    0.5243    6.4470   -0.7152 H   0  0  0  0  0  0  0  0  0  0  0  0
   -0.6205    5.8140   -1.6942 H   0  0  0  0  0  0  0  0  0  0  0  0
  1  5  1  0
  5  8  1  0
  1  2  1  0
  1  3  1  0
  1  4  1  0
  5  6  1  0
  5  7  1  0
  8  9  1  0
  8 10  1  0
  8 11  1  0
 12 16  1  0
 16 17  1  0
 12 13  1  0
 12 14  1  0
 12 15  1  0
 17 18  1  0
 17 19  1  0
 17 20  1  0
M  CHG  1   8   1
M  END
>  <PDB_ID>  (5) 
pdb11ba

>  <RESIDUE_NAME>  (5) 
LYS   MET

>  <FRAG_NAME>  (5) 
ETAM   MSM

>  <FRAG_ATOM_NUM>  (5) 
fragi: 11  fragj: 9

>  <atom.prop.CHAIN_ID>  (5) 
A A A A A A A A A A A Z Z Z Z Z Z Z Z Z

>  <atom.prop.IS_HEAVY_ATOM>  (5) 
1 0 0 0 1 0 0 1 0 0 0 1 0 0 0 1 1 0 0 0

>  <DIFUSE_FUNC_ATOM>  (5) 
n/a

>  <FINAL_SINGLE_POINT_ENERGY>  (5) 
0

>  <NONCOV_INTER_ENERGY_QM>  (5) 
0

>  <FF_Energy>  (5) 
-5.62

>  <QM_Energy>  (5) 
-12.51

>  <source>  (5) 
ETAM_MSM

>  <Index>  (5) 
23

$$$$
ETAM-pdb1a26-A-LYS-761:MSM-pdb1a26-A-MET-764
     RDKit          3D

 20 18  0  0  0  0  0  0  0  0999 V2000
    1.2204    0.8487   -0.0000 C   0  0  0  0  0  0  0  0  0  0  0  0
    1.3071    1.3069    0.8876 H   0  0  0  0  0  0  0  0  0  0  0  0
    1.1446    1.5399   -0.7214 H   0  0  0  0  0  0  0  0  0  0  0  0
    2.1271    0.2696   -0.1750 H   0  0  0  0  0  0  0  0  0  0  0  0
    0.0000    0.0000    0.0000 C   0  0  0  0  0  0  0  0  0  0  0  0
   -0.0299   -0.5639   -0.8163 H   0  0  0  0  0  0  0  0  0  0  0  0
   -0.0306   -0.5640    0.8167 H   0  0  0  0  0  0  0  0  0  0  0  0
   -1.2204    0.8970   -0.0000 N   0  0  0  0  0  4  0  0  0  0  0  0
   -1.4736    1.0901    0.9435 H   0  0  0  0  0  0  0  0  0  0  0  0
   -0.9954    1.7409   -0.4765 H   0  0  0  0  0  0  0  0  0  0  0  0
   -1.9625    0.4254   -0.4666 H   0  0  0  0  0  0  0  0  0  0  0  0
   -0.0584    5.9084   -0.3497 C   0  0  0  0  0  0  0  0  0  0  0  0
    0.4701    6.6874    0.0564 H   0  0  0  0  0  0  0  0  0  0  0  0
   -0.9420    6.3158   -0.6746 H   0  0  0  0  0  0  0  0  0  0  0  0
    0.4891    5.5340   -1.2146 H   0  0  0  0  0  0  0  0  0  0  0  0
   -0.3598    4.6307    0.8812 S   0  0  0  0  0  0  0  0  0  0  0  0
    1.0334    4.8747    1.9028 C   0  0  0  0  0  0  0  0  0  0  0  0
    0.8789    5.6381    2.5446 H   0  0  0  0  0  0  0  0  0  0  0  0
    1.2313    4.0465    2.4440 H   0  0  0  0  0  0  0  0  0  0  0  0
    1.8501    5.0899    1.3504 H   0  0  0  0  0  0  0  0  0  0  0  0
  1  5  1  0
  5  8  1  0
  1  2  1  0
  1  3  1  0
  1  4  1  0
  5  6  1  0
  5  7  1  0
  8  9  1  0
  8 10  1  0
  8 11  1  0
 12 16  1  0
 16 17  1  0
 12 13  1  0
 12 14  1  0
 12 15  1  0
 17 18  1  0
 17 19  1  0
 17 20  1  0
M  CHG  1   8   1
M  END
>  <PDB_ID>  (6) 
pdb1a26

>  <RESIDUE_NAME>  (6) 
LYS   MET

>  <FRAG_NAME>  (6) 
ETAM   MSM

>  <FRAG_ATOM_NUM>  (6) 
fragi: 11  fragj: 9

>  <atom.prop.CHAIN_ID>  (6) 
A A A A A A A A A A A Z Z Z Z Z Z Z Z Z

>  <atom.prop.IS_HEAVY_ATOM>  (6) 
1 0 0 0 1 0 0 1 0 0 0 1 0 0 0 1 1 0 0 0

>  <DIFUSE_FUNC_ATOM>  (6) 
n/a

>  <FINAL_SINGLE_POINT_ENERGY>  (6) 
0

>  <NONCOV_INTER_ENERGY_QM>  (6) 
0

>  <FF_Energy>  (6) 
-4.85

>  <QM_Energy>  (6) 
-10.77

>  <source>  (6) 
ETAM_MSM

>  <Index>  (6) 
25

$$$$
ETAM-pdb2a1k-A-LYS-136:MSM-pdb2a1k-A-MET-219
     RDKit          3D

 20 18  0  0  0  0  0  0  0  0999 V2000
    1.2224    0.8979    0.0000 C   0  0  0  0  0  0  0  0  0  0  0  0
    1.1082    1.5873    0.7211 H   0  0  0  0  0  0  0  0  0  0  0  0
    1.2726    1.3623   -0.8887 H   0  0  0  0  0  0  0  0  0  0  0  0
    2.1542    0.3589    0.1715 H   0  0  0  0  0  0  0  0  0  0  0  0
    0.0000    0.0000    0.0000 C   0  0  0  0  0  0  0  0  0  0  0  0
    0.0024   -0.5584   -0.8164 H   0  0  0  0  0  0  0  0  0  0  0  0
    0.0023   -0.5592    0.8165 H   0  0  0  0  0  0  0  0  0  0  0  0
   -1.2224    0.8650   -0.0000 N   0  0  0  0  0  4  0  0  0  0  0  0
   -1.4253    1.1441    0.9370 H   0  0  0  0  0  0  0  0  0  0  0  0
   -1.0530    1.6703   -0.5642 H   0  0  0  0  0  0  0  0  0  0  0  0
   -1.9894    0.3465   -0.3720 H   0  0  0  0  0  0  0  0  0  0  0  0
   -2.7002   -0.6228   -4.8797 C   0  0  0  0  0  0  0  0  0  0  0  0
   -2.9620   -1.6057   -5.0697 H   0  0  0  0  0  0  0  0  0  0  0  0
   -1.8487   -0.4736   -5.4494 H   0  0  0  0  0  0  0  0  0  0  0  0
   -3.4895    0.0236   -5.2636 H   0  0  0  0  0  0  0  0  0  0  0  0
   -2.3494   -0.3855   -3.1426 S   0  0  0  0  0  0  0  0  0  0  0  0
   -0.5585   -0.5836   -3.1866 C   0  0  0  0  0  0  0  0  0  0  0  0
   -0.3306   -1.4132   -3.6945 H   0  0  0  0  0  0  0  0  0  0  0  0
   -0.1496    0.2091   -3.6381 H   0  0  0  0  0  0  0  0  0  0  0  0
   -0.2115   -0.6549   -2.2523 H   0  0  0  0  0  0  0  0  0  0  0  0
  1  5  1  0
  5  8  1  0
  1  2  1  0
  1  3  1  0
  1  4  1  0
  5  6  1  0
  5  7  1  0
  8  9  1  0
  8 10  1  0
  8 11  1  0
 12 16  1  0
 16 17  1  0
 12 13  1  0
 12 14  1  0
 12 15  1  0
 17 18  1  0
 17 19  1  0
 17 20  1  0
M  CHG  1   8   1
M  END
>  <PDB_ID>  (7) 
pdb2a1k

>  <RESIDUE_NAME>  (7) 
LYS   MET

>  <FRAG_NAME>  (7) 
ETAM   MSM

>  <FRAG_ATOM_NUM>  (7) 
fragi: 11  fragj: 9

>  <atom.prop.CHAIN_ID>  (7) 
A A A A A A A A A A A Z Z Z Z Z Z Z Z Z

>  <atom.prop.IS_HEAVY_ATOM>  (7) 
1 0 0 0 1 0 0 1 0 0 0 1 0 0 0 1 1 0 0 0

>  <DIFUSE_FUNC_ATOM>  (7) 
n/a

>  <FINAL_SINGLE_POINT_ENERGY>  (7) 
0

>  <NONCOV_INTER_ENERGY_QM>  (7) 
0

>  <FF_Energy>  (7) 
41.38

>  <QM_Energy>  (7) 
-2.52

>  <source>  (7) 
ETAM_MSM

>  <Index>  (7) 
28

$$$$
ETAM-pdb2a1k-B-LYS-136:MSM-pdb2a1k-B-MET-219
     RDKit          3D

 20 18  0  0  0  0  0  0  0  0999 V2000
    1.2410    0.8708    0.0000 C   0  0  0  0  0  0  0  0  0  0  0  0
    1.1497    1.5614    0.7149 H   0  0  0  0  0  0  0  0  0  0  0  0
    1.3222    1.3137   -0.8903 H   0  0  0  0  0  0  0  0  0  0  0  0
    2.1492    0.2977    0.1868 H   0  0  0  0  0  0  0  0  0  0  0  0
    0.0000    0.0000    0.0000 C   0  0  0  0  0  0  0  0  0  0  0  0
    0.0043   -0.5786   -0.8161 H   0  0  0  0  0  0  0  0  0  0  0  0
    0.0036   -0.5786    0.8164 H   0  0  0  0  0  0  0  0  0  0  0  0
   -1.2410    0.8321   -0.0000 N   0  0  0  0  0  4  0  0  0  0  0  0
   -1.6451    0.8195   -0.9128 H   0  0  0  0  0  0  0  0  0  0  0  0
   -1.8889    0.4561    0.6607 H   0  0  0  0  0  0  0  0  0  0  0  0
   -1.0085    1.7698    0.2528 H   0  0  0  0  0  0  0  0  0  0  0  0
   -1.9900    5.2037    0.4939 C   0  0  0  0  0  0  0  0  0  0  0  0
   -2.8925    4.7352    0.3208 H   0  0  0  0  0  0  0  0  0  0  0  0
   -1.6388    5.4469   -0.4449 H   0  0  0  0  0  0  0  0  0  0  0  0
   -2.1890    6.1308    1.0314 H   0  0  0  0  0  0  0  0  0  0  0  0
   -0.8673    4.1476    1.3502 S   0  0  0  0  0  0  0  0  0  0  0  0
    0.7104    4.7300    0.6638 C   0  0  0  0  0  0  0  0  0  0  0  0
    0.7049    5.7267    0.6422 H   0  0  0  0  0  0  0  0  0  0  0  0
    1.4542    4.4057    1.2432 H   0  0  0  0  0  0  0  0  0  0  0  0
    0.8142    4.3689   -0.2596 H   0  0  0  0  0  0  0  0  0  0  0  0
  1  5  1  0
  5  8  1  0
  1  2  1  0
  1  3  1  0
  1  4  1  0
  5  6  1  0
  5  7  1  0
  8  9  1  0
  8 10  1  0
  8 11  1  0
 12 16  1  0
 16 17  1  0
 12 13  1  0
 12 14  1  0
 12 15  1  0
 17 18  1  0
 17 19  1  0
 17 20  1  0
M  CHG  1   8   1
M  END
>  <PDB_ID>  (8) 
pdb2a1k

>  <RESIDUE_NAME>  (8) 
LYS   MET

>  <FRAG_NAME>  (8) 
ETAM   MSM

>  <FRAG_ATOM_NUM>  (8) 
fragi: 11  fragj: 9

>  <atom.prop.CHAIN_ID>  (8) 
A A A A A A A A A A A Z Z Z Z Z Z Z Z Z

>  <atom.prop.IS_HEAVY_ATOM>  (8) 
1 0 0 0 1 0 0 1 0 0 0 1 0 0 0 1 1 0 0 0

>  <DIFUSE_FUNC_ATOM>  (8) 
n/a

>  <FINAL_SINGLE_POINT_ENERGY>  (8) 
0

>  <NONCOV_INTER_ENERGY_QM>  (8) 
0

>  <FF_Energy>  (8) 
-5.34

>  <QM_Energy>  (8) 
-14.96

>  <source>  (8) 
ETAM_MSM

>  <Index>  (8) 
30

$$$$
ETAM-pdb1a49-G-LYS-4469:MSM-pdb1a49-G-MET-4490
     RDKit          3D

 20 18  0  0  0  0  0  0  0  0999 V2000
    1.2544    0.8770   -0.0000 C   0  0  0  0  0  0  0  0  0  0  0  0
    1.4984    1.0725    0.9506 H   0  0  0  0  0  0  0  0  0  0  0  0
    1.0365    1.7336   -0.4688 H   0  0  0  0  0  0  0  0  0  0  0  0
    2.1049    0.4079   -0.4947 H   0  0  0  0  0  0  0  0  0  0  0  0
    0.0000    0.0000    0.0000 C   0  0  0  0  0  0  0  0  0  0  0  0
    0.0280   -0.5940   -0.8157 H   0  0  0  0  0  0  0  0  0  0  0  0
    0.0273   -0.5933    0.8167 H   0  0  0  0  0  0  0  0  0  0  0  0
   -1.2544    0.7791   -0.0000 N   0  0  0  0  0  4  0  0  0  0  0  0
   -1.4496    1.1056    0.9270 H   0  0  0  0  0  0  0  0  0  0  0  0
   -1.1632    1.5646   -0.6136 H   0  0  0  0  0  0  0  0  0  0  0  0
   -2.0105    0.2014   -0.3129 H   0  0  0  0  0  0  0  0  0  0  0  0
    3.7312    1.5551    3.6856 C   0  0  0  0  0  0  0  0  0  0  0  0
    3.7388    0.8301    4.4077 H   0  0  0  0  0  0  0  0  0  0  0  0
    4.0794    2.4036    4.1388 H   0  0  0  0  0  0  0  0  0  0  0  0
    4.4330    1.2687    2.9024 H   0  0  0  0  0  0  0  0  0  0  0  0
    2.0367    1.8158    3.0621 S   0  0  0  0  0  0  0  0  0  0  0  0
    2.1262    3.3983    2.2544 C   0  0  0  0  0  0  0  0  0  0  0  0
    2.8203    3.3740    1.5314 H   0  0  0  0  0  0  0  0  0  0  0  0
    1.2379    3.6248    1.8470 H   0  0  0  0  0  0  0  0  0  0  0  0
    2.3718    4.1084    2.9190 H   0  0  0  0  0  0  0  0  0  0  0  0
  1  5  1  0
  5  8  1  0
  1  2  1  0
  1  3  1  0
  1  4  1  0
  5  6  1  0
  5  7  1  0
  8  9  1  0
  8 10  1  0
  8 11  1  0
 12 16  1  0
 16 17  1  0
 12 13  1  0
 12 14  1  0
 12 15  1  0
 17 18  1  0
 17 19  1  0
 17 20  1  0
M  CHG  1   8   1
M  END
>  <PDB_ID>  (9) 
pdb1a49

>  <RESIDUE_NAME>  (9) 
LYS   MET

>  <FRAG_NAME>  (9) 
ETAM   MSM

>  <FRAG_ATOM_NUM>  (9) 
fragi: 11  fragj: 9

>  <atom.prop.CHAIN_ID>  (9) 
A A A A A A A A A A A Z Z Z Z Z Z Z Z Z

>  <atom.prop.IS_HEAVY_ATOM>  (9) 
1 0 0 0 1 0 0 1 0 0 0 1 0 0 0 1 1 0 0 0

>  <DIFUSE_FUNC_ATOM>  (9) 
n/a

>  <FINAL_SINGLE_POINT_ENERGY>  (9) 
0

>  <NONCOV_INTER_ENERGY_QM>  (9) 
0

>  <FF_Energy>  (9) 
4.65

>  <QM_Energy>  (9) 
-3.86

>  <source>  (9) 
ETAM_MSM

>  <Index>  (9) 
70

$$$$
ETAM-pdb2a92-A-LYS-62:MSM-pdb2a92-A-MET-58
     RDKit          3D

 20 18  0  0  0  0  0  0  0  0999 V2000
    1.2724    0.8625    0.0000 C   0  0  0  0  0  0  0  0  0  0  0  0
    1.3728    1.2673    0.9005 H   0  0  0  0  0  0  0  0  0  0  0  0
    1.1700    1.5660   -0.6923 H   0  0  0  0  0  0  0  0  0  0  0  0
    2.1568    0.2657   -0.2236 H   0  0  0  0  0  0  0  0  0  0  0  0
    0.0000    0.0000    0.0000 C   0  0  0  0  0  0  0  0  0  0  0  0
    0.0079   -0.5873   -0.8164 H   0  0  0  0  0  0  0  0  0  0  0  0
    0.0075   -0.5870    0.8162 H   0  0  0  0  0  0  0  0  0  0  0  0
   -1.2724    0.8145   -0.0000 N   0  0  0  0  0  4  0  0  0  0  0  0
   -1.9940    0.2810    0.4323 H   0  0  0  0  0  0  0  0  0  0  0  0
   -1.1147    1.6560    0.5095 H   0  0  0  0  0  0  0  0  0  0  0  0
   -1.5181    1.0250   -0.9419 H   0  0  0  0  0  0  0  0  0  0  0  0
    0.7113   -2.4701    3.3547 C   0  0  0  0  0  0  0  0  0  0  0  0
    1.2072   -2.7330    2.5021 H   0  0  0  0  0  0  0  0  0  0  0  0
   -0.1913   -2.9454    3.3169 H   0  0  0  0  0  0  0  0  0  0  0  0
    1.2690   -2.8514    4.2101 H   0  0  0  0  0  0  0  0  0  0  0  0
    0.5042   -0.7027    3.4616 S   0  0  0  0  0  0  0  0  0  0  0  0
   -0.8658   -0.6046    4.6564 C   0  0  0  0  0  0  0  0  0  0  0  0
   -1.6630   -0.2192    4.1998 H   0  0  0  0  0  0  0  0  0  0  0  0
   -1.0707   -1.5223    4.9862 H   0  0  0  0  0  0  0  0  0  0  0  0
   -0.5886   -0.0211    5.4150 H   0  0  0  0  0  0  0  0  0  0  0  0
  1  5  1  0
  5  8  1  0
  1  2  1  0
  1  3  1  0
  1  4  1  0
  5  6  1  0
  5  7  1  0
  8  9  1  0
  8 10  1  0
  8 11  1  0
 12 16  1  0
 16 17  1  0
 12 13  1  0
 12 14  1  0
 12 15  1  0
 17 18  1  0
 17 19  1  0
 17 20  1  0
M  CHG  1   8   1
M  END
>  <PDB_ID>  (10) 
pdb2a92

>  <RESIDUE_NAME>  (10) 
LYS   MET

>  <FRAG_NAME>  (10) 
ETAM   MSM

>  <FRAG_ATOM_NUM>  (10) 
fragi: 11  fragj: 9

>  <atom.prop.CHAIN_ID>  (10) 
A A A A A A A A A A A Z Z Z Z Z Z Z Z Z

>  <atom.prop.IS_HEAVY_ATOM>  (10) 
1 0 0 0 1 0 0 1 0 0 0 1 0 0 0 1 1 0 0 0

>  <DIFUSE_FUNC_ATOM>  (10) 
n/a

>  <FINAL_SINGLE_POINT_ENERGY>  (10) 
0

>  <NONCOV_INTER_ENERGY_QM>  (10) 
0

>  <FF_Energy>  (10) 
-3.32

>  <QM_Energy>  (10) 
-8.77

>  <source>  (10) 
ETAM_MSM

>  <Index>  (10) 
76

$$$$
ETAM-pdb1a4s-A-LYS-73:MSM-pdb1a4s-A-MET-77
     RDKit          3D

 20 18  0  0  0  0  0  0  0  0999 V2000
    1.2383    0.8802   -0.0000 C   0  0  0  0  0  0  0  0  0  0  0  0
    1.1160    1.5983    0.6921 H   0  0  0  0  0  0  0  0  0  0  0  0
    1.3186    1.3123   -0.9036 H   0  0  0  0  0  0  0  0  0  0  0  0
    2.1587    0.3372    0.2149 H   0  0  0  0  0  0  0  0  0  0  0  0
    0.0000    0.0000    0.0000 C   0  0  0  0  0  0  0  0  0  0  0  0
    0.0023   -0.5707   -0.8167 H   0  0  0  0  0  0  0  0  0  0  0  0
    0.0019   -0.5708    0.8162 H   0  0  0  0  0  0  0  0  0  0  0  0
   -1.2383    0.8468   -0.0000 N   0  0  0  0  0  4  0  0  0  0  0  0
   -1.7883    0.6196    0.8013 H   0  0  0  0  0  0  0  0  0  0  0  0
   -0.9749    1.8088    0.0309 H   0  0  0  0  0  0  0  0  0  0  0  0
   -1.7583    0.6636   -0.8311 H   0  0  0  0  0  0  0  0  0  0  0  0
   -0.4742    0.5451    4.6781 C   0  0  0  0  0  0  0  0  0  0  0  0
   -1.4242    0.7711    4.3664 H   0  0  0  0  0  0  0  0  0  0  0  0
    0.1341    1.2385    4.2305 H   0  0  0  0  0  0  0  0  0  0  0  0
   -0.4327    0.7166    5.7537 H   0  0  0  0  0  0  0  0  0  0  0  0
   -0.0141   -1.1162    4.2321 S   0  0  0  0  0  0  0  0  0  0  0  0
    1.2351   -0.8401    3.0156 C   0  0  0  0  0  0  0  0  0  0  0  0
    1.4589    0.1385    2.9617 H   0  0  0  0  0  0  0  0  0  0  0  0
    2.0696   -1.3479    3.2515 H   0  0  0  0  0  0  0  0  0  0  0  0
    0.9166   -1.1467    2.1129 H   0  0  0  0  0  0  0  0  0  0  0  0
  1  5  1  0
  5  8  1  0
  1  2  1  0
  1  3  1  0
  1  4  1  0
  5  6  1  0
  5  7  1  0
  8  9  1  0
  8 10  1  0
  8 11  1  0
 12 16  1  0
 16 17  1  0
 12 13  1  0
 12 14  1  0
 12 15  1  0
 17 18  1  0
 17 19  1  0
 17 20  1  0
M  CHG  1   8   1
M  END
>  <PDB_ID>  (11) 
pdb1a4s

>  <RESIDUE_NAME>  (11) 
LYS   MET

>  <FRAG_NAME>  (11) 
ETAM   MSM

>  <FRAG_ATOM_NUM>  (11) 
fragi: 11  fragj: 9

>  <atom.prop.CHAIN_ID>  (11) 
A A A A A A A A A A A Z Z Z Z Z Z Z Z Z

>  <atom.prop.IS_HEAVY_ATOM>  (11) 
1 0 0 0 1 0 0 1 0 0 0 1 0 0 0 1 1 0 0 0

>  <DIFUSE_FUNC_ATOM>  (11) 
n/a

>  <FINAL_SINGLE_POINT_ENERGY>  (11) 
0

>  <NONCOV_INTER_ENERGY_QM>  (11) 
0

>  <FF_Energy>  (11) 
7.58

>  <QM_Energy>  (11) 
0.47

>  <source>  (11) 
ETAM_MSM

>  <Index>  (11) 
88

$$$$
ETAM-pdb2a92-B-LYS-62:MSM-pdb2a92-B-MET-58
     RDKit          3D

 20 18  0  0  0  0  0  0  0  0999 V2000
    1.2353    0.9179   -0.0000 C   0  0  0  0  0  0  0  0  0  0  0  0
    1.3147    1.3334    0.9008 H   0  0  0  0  0  0  0  0  0  0  0  0
    1.1018    1.6198   -0.6925 H   0  0  0  0  0  0  0  0  0  0  0  0
    2.1550    0.3757   -0.2196 H   0  0  0  0  0  0  0  0  0  0  0  0
    0.0000    0.0000    0.0000 C   0  0  0  0  0  0  0  0  0  0  0  0
    0.0226   -0.5613   -0.8162 H   0  0  0  0  0  0  0  0  0  0  0  0
    0.0222   -0.5623    0.8168 H   0  0  0  0  0  0  0  0  0  0  0  0
   -1.2353    0.8342   -0.0000 N   0  0  0  0  0  4  0  0  0  0  0  0
   -2.0363    0.2385    0.0486 H   0  0  0  0  0  0  0  0  0  0  0  0
   -1.2216    1.4443    0.7914 H   0  0  0  0  0  0  0  0  0  0  0  0
   -1.2689    1.3743   -0.8405 H   0  0  0  0  0  0  0  0  0  0  0  0
    0.9028   -2.5351    3.2091 C   0  0  0  0  0  0  0  0  0  0  0  0
    1.4462   -2.6581    2.3286 H   0  0  0  0  0  0  0  0  0  0  0  0
    0.0437   -3.1004    3.0390 H   0  0  0  0  0  0  0  0  0  0  0  0
    1.4621   -3.0300    4.0030 H   0  0  0  0  0  0  0  0  0  0  0  0
    0.4974   -0.8095    3.4828 S   0  0  0  0  0  0  0  0  0  0  0  0
   -0.9792   -0.9637    4.5037 C   0  0  0  0  0  0  0  0  0  0  0  0
   -0.7526   -1.4609    5.3408 H   0  0  0  0  0  0  0  0  0  0  0  0
   -1.3171   -0.0525    4.7364 H   0  0  0  0  0  0  0  0  0  0  0  0
   -1.6807   -1.4627    3.9962 H   0  0  0  0  0  0  0  0  0  0  0  0
  1  5  1  0
  5  8  1  0
  1  2  1  0
  1  3  1  0
  1  4  1  0
  5  6  1  0
  5  7  1  0
  8  9  1  0
  8 10  1  0
  8 11  1  0
 12 16  1  0
 16 17  1  0
 12 13  1  0
 12 14  1  0
 12 15  1  0
 17 18  1  0
 17 19  1  0
 17 20  1  0
M  CHG  1   8   1
M  END
>  <PDB_ID>  (12) 
pdb2a92

>  <RESIDUE_NAME>  (12) 
LYS   MET

>  <FRAG_NAME>  (12) 
ETAM   MSM

>  <FRAG_ATOM_NUM>  (12) 
fragi: 11  fragj: 9

>  <atom.prop.CHAIN_ID>  (12) 
A A A A A A A A A A A Z Z Z Z Z Z Z Z Z

>  <atom.prop.IS_HEAVY_ATOM>  (12) 
1 0 0 0 1 0 0 1 0 0 0 1 0 0 0 1 1 0 0 0

>  <DIFUSE_FUNC_ATOM>  (12) 
n/a

>  <FINAL_SINGLE_POINT_ENERGY>  (12) 
0

>  <NONCOV_INTER_ENERGY_QM>  (12) 
0

>  <FF_Energy>  (12) 
-3.38

>  <QM_Energy>  (12) 
-8.7

>  <source>  (12) 
ETAM_MSM

>  <Index>  (12) 
96

$$$$
ETAM-pdb1a6q-A-LYS-12:MSM-pdb1a6q-A-MET-29
     RDKit          3D

 20 18  0  0  0  0  0  0  0  0999 V2000
    1.2294    0.8756   -0.0000 C   0  0  0  0  0  0  0  0  0  0  0  0
    2.0276    0.3058   -0.1043 H   0  0  0  0  0  0  0  0  0  0  0  0
    1.2547    1.3898    0.8415 H   0  0  0  0  0  0  0  0  0  0  0  0
    1.1699    1.5659   -0.8414 H   0  0  0  0  0  0  0  0  0  0  0  0
    0.0000    0.0000    0.0000 C   0  0  0  0  0  0  0  0  0  0  0  0
    0.0046   -0.5752   -0.8159 H   0  0  0  0  0  0  0  0  0  0  0  0
    0.0043   -0.5747    0.8164 H   0  0  0  0  0  0  0  0  0  0  0  0
   -1.2294    0.8378   -0.0000 N   0  0  0  0  0  4  0  0  0  0  0  0
   -1.8965    0.4475   -0.6340 H   0  0  0  0  0  0  0  0  0  0  0  0
   -1.6163    0.8595    0.9214 H   0  0  0  0  0  0  0  0  0  0  0  0
   -0.9978    1.7665   -0.2881 H   0  0  0  0  0  0  0  0  0  0  0  0
    0.9202    1.4709    4.0141 C   0  0  0  0  0  0  0  0  0  0  0  0
    0.8503    1.6391    5.0355 H   0  0  0  0  0  0  0  0  0  0  0  0
    1.0640    2.4186    3.6170 H   0  0  0  0  0  0  0  0  0  0  0  0
    1.8287    0.8958    3.8352 H   0  0  0  0  0  0  0  0  0  0  0  0
   -0.5662    0.7254    3.3803 S   0  0  0  0  0  0  0  0  0  0  0  0
   -1.1326   -0.1642    4.8102 C   0  0  0  0  0  0  0  0  0  0  0  0
   -0.6201    0.1291    5.6221 H   0  0  0  0  0  0  0  0  0  0  0  0
   -2.1092    0.0131    4.9600 H   0  0  0  0  0  0  0  0  0  0  0  0
   -0.9973   -1.1493    4.6776 H   0  0  0  0  0  0  0  0  0  0  0  0
  1  5  1  0
  5  8  1  0
  1  2  1  0
  1  3  1  0
  1  4  1  0
  5  6  1  0
  5  7  1  0
  8  9  1  0
  8 10  1  0
  8 11  1  0
 12 16  1  0
 16 17  1  0
 12 13  1  0
 12 14  1  0
 12 15  1  0
 17 18  1  0
 17 19  1  0
 17 20  1  0
M  CHG  1   8   1
M  END
>  <PDB_ID>  (13) 
pdb1a6q

>  <RESIDUE_NAME>  (13) 
LYS   MET

>  <FRAG_NAME>  (13) 
ETAM   MSM

>  <FRAG_ATOM_NUM>  (13) 
fragi: 11  fragj: 9

>  <atom.prop.CHAIN_ID>  (13) 
A A A A A A A A A A A Z Z Z Z Z Z Z Z Z

>  <atom.prop.IS_HEAVY_ATOM>  (13) 
1 0 0 0 1 0 0 1 0 0 0 1 0 0 0 1 1 0 0 0

>  <DIFUSE_FUNC_ATOM>  (13) 
n/a

>  <FINAL_SINGLE_POINT_ENERGY>  (13) 
0

>  <NONCOV_INTER_ENERGY_QM>  (13) 
0

>  <FF_Energy>  (13) 
-5.98

>  <QM_Energy>  (13) 
-14.4

>  <source>  (13) 
ETAM_MSM

>  <Index>  (13) 
97

$$$$
ETAM-pdb1a49-B-LYS-1021:MSM-pdb1a49-A-MET-413
     RDKit          3D

 20 18  0  0  0  0  0  0  0  0999 V2000
    1.2544    0.8787   -0.0000 C   0  0  0  0  0  0  0  0  0  0  0  0
    1.1845    1.5348    0.7470 H   0  0  0  0  0  0  0  0  0  0  0  0
    1.3090    1.3567   -0.8728 H   0  0  0  0  0  0  0  0  0  0  0  0
    2.1722    0.3062    0.1341 H   0  0  0  0  0  0  0  0  0  0  0  0
    0.0000    0.0000    0.0000 C   0  0  0  0  0  0  0  0  0  0  0  0
    0.0321   -0.5959   -0.8164 H   0  0  0  0  0  0  0  0  0  0  0  0
    0.0320   -0.5968    0.8162 H   0  0  0  0  0  0  0  0  0  0  0  0
   -1.2544    0.7693    0.0000 N   0  0  0  0  0  4  0  0  0  0  0  0
   -2.0134    0.1826   -0.2904 H   0  0  0  0  0  0  0  0  0  0  0  0
   -1.4412    1.1148    0.9220 H   0  0  0  0  0  0  0  0  0  0  0  0
   -1.1783    1.5441   -0.6311 H   0  0  0  0  0  0  0  0  0  0  0  0
    2.1230    0.8682   -4.4036 C   0  0  0  0  0  0  0  0  0  0  0  0
    1.6691    1.0376   -5.3078 H   0  0  0  0  0  0  0  0  0  0  0  0
    1.9971   -0.1329   -4.2178 H   0  0  0  0  0  0  0  0  0  0  0  0
    3.1893    1.0659   -4.5123 H   0  0  0  0  0  0  0  0  0  0  0  0
    1.3497    1.8621   -3.1044 S   0  0  0  0  0  0  0  0  0  0  0  0
    1.1121    3.4384   -3.9540 C   0  0  0  0  0  0  0  0  0  0  0  0
    0.1492    3.5372   -4.1993 H   0  0  0  0  0  0  0  0  0  0  0  0
    1.3841    4.1830   -3.3466 H   0  0  0  0  0  0  0  0  0  0  0  0
    1.6741    3.4544   -4.7797 H   0  0  0  0  0  0  0  0  0  0  0  0
  1  5  1  0
  5  8  1  0
  1  2  1  0
  1  3  1  0
  1  4  1  0
  5  6  1  0
  5  7  1  0
  8  9  1  0
  8 10  1  0
  8 11  1  0
 12 16  1  0
 16 17  1  0
 12 13  1  0
 12 14  1  0
 12 15  1  0
 17 18  1  0
 17 19  1  0
 17 20  1  0
M  CHG  1   8   1
M  END
>  <PDB_ID>  (14) 
pdb1a49

>  <RESIDUE_NAME>  (14) 
LYS   MET

>  <FRAG_NAME>  (14) 
ETAM   MSM

>  <FRAG_ATOM_NUM>  (14) 
fragi: 11  fragj: 9

>  <atom.prop.CHAIN_ID>  (14) 
A A A A A A A A A A A Z Z Z Z Z Z Z Z Z

>  <atom.prop.IS_HEAVY_ATOM>  (14) 
1 0 0 0 1 0 0 1 0 0 0 1 0 0 0 1 1 0 0 0

>  <DIFUSE_FUNC_ATOM>  (14) 
n/a

>  <FINAL_SINGLE_POINT_ENERGY>  (14) 
0

>  <NONCOV_INTER_ENERGY_QM>  (14) 
0

>  <FF_Energy>  (14) 
4.1

>  <QM_Energy>  (14) 
-6.42

>  <source>  (14) 
ETAM_MSM

>  <Index>  (14) 
98

$$$$
ETAM-pdb1a49-A-LYS-421:MSM-pdb1a49-B-MET-1013
     RDKit          3D

 20 18  0  0  0  0  0  0  0  0999 V2000
    1.2314    0.8776   -0.0000 C   0  0  0  0  0  0  0  0  0  0  0  0
    0.9953    1.7567    0.4311 H   0  0  0  0  0  0  0  0  0  0  0  0
    1.4950    1.0547   -0.9556 H   0  0  0  0  0  0  0  0  0  0  0  0
    2.0822    0.4456    0.5267 H   0  0  0  0  0  0  0  0  0  0  0  0
    0.0000    0.0000    0.0000 C   0  0  0  0  0  0  0  0  0  0  0  0
    0.0118   -0.5796   -0.8161 H   0  0  0  0  0  0  0  0  0  0  0  0
    0.0117   -0.5800    0.8163 H   0  0  0  0  0  0  0  0  0  0  0  0
   -1.2314    0.8204    0.0000 N   0  0  0  0  0  4  0  0  0  0  0  0
   -1.0800    1.6532    0.5345 H   0  0  0  0  0  0  0  0  0  0  0  0
   -1.4696    1.0682   -0.9399 H   0  0  0  0  0  0  0  0  0  0  0  0
   -1.9829    0.2984    0.4060 H   0  0  0  0  0  0  0  0  0  0  0  0
    1.6399   -3.9397   -1.5710 C   0  0  0  0  0  0  0  0  0  0  0  0
    1.1273   -4.6498   -2.1061 H   0  0  0  0  0  0  0  0  0  0  0  0
    1.4866   -4.1769   -0.5847 H   0  0  0  0  0  0  0  0  0  0  0  0
    2.7023   -4.0496   -1.7889 H   0  0  0  0  0  0  0  0  0  0  0  0
    1.0135   -2.2852   -1.9369 S   0  0  0  0  0  0  0  0  0  0  0  0
    1.2484   -2.3586   -3.7095 C   0  0  0  0  0  0  0  0  0  0  0  0
    0.3621   -2.2875   -4.1701 H   0  0  0  0  0  0  0  0  0  0  0  0
    1.8350   -1.6026   -4.0026 H   0  0  0  0  0  0  0  0  0  0  0  0
    1.6802   -3.2280   -3.9560 H   0  0  0  0  0  0  0  0  0  0  0  0
  1  5  1  0
  5  8  1  0
  1  2  1  0
  1  3  1  0
  1  4  1  0
  5  6  1  0
  5  7  1  0
  8  9  1  0
  8 10  1  0
  8 11  1  0
 12 16  1  0
 16 17  1  0
 12 13  1  0
 12 14  1  0
 12 15  1  0
 17 18  1  0
 17 19  1  0
 17 20  1  0
M  CHG  1   8   1
M  END
>  <PDB_ID>  (15) 
pdb1a49

>  <RESIDUE_NAME>  (15) 
LYS   MET

>  <FRAG_NAME>  (15) 
ETAM   MSM

>  <FRAG_ATOM_NUM>  (15) 
fragi: 11  fragj: 9

>  <atom.prop.CHAIN_ID>  (15) 
A A A A A A A A A A A Z Z Z Z Z Z Z Z Z

>  <atom.prop.IS_HEAVY_ATOM>  (15) 
1 0 0 0 1 0 0 1 0 0 0 1 0 0 0 1 1 0 0 0

>  <DIFUSE_FUNC_ATOM>  (15) 
n/a

>  <FINAL_SINGLE_POINT_ENERGY>  (15) 
0

>  <NONCOV_INTER_ENERGY_QM>  (15) 
0

>  <FF_Energy>  (15) 
6.52

>  <QM_Energy>  (15) 
-6.07

>  <source>  (15) 
ETAM_MSM

>  <Index>  (15) 
99

$$$$
ETAM-pdb1a7x-B-LYS-52:MSM-pdb1a7x-B-MET-49
     RDKit          3D

 20 18  0  0  0  0  0  0  0  0999 V2000
    1.1807    0.9221    0.0000 C   0  0  0  0  0  0  0  0  0  0  0  0
    1.2421    1.3637    0.8939 H   0  0  0  0  0  0  0  0  0  0  0  0
    1.0471    1.6129   -0.7088 H   0  0  0  0  0  0  0  0  0  0  0  0
    2.1038    0.3768   -0.1963 H   0  0  0  0  0  0  0  0  0  0  0  0
    0.0000    0.0000    0.0000 C   0  0  0  0  0  0  0  0  0  0  0  0
    0.0293   -0.5635   -0.8165 H   0  0  0  0  0  0  0  0  0  0  0  0
    0.0289   -0.5639    0.8164 H   0  0  0  0  0  0  0  0  0  0  0  0
   -1.1807    0.8247   -0.0000 N   0  0  0  0  0  4  0  0  0  0  0  0
   -1.0082    1.6261    0.6371 H   0  0  0  0  0  0  0  0  0  0  0  0
   -1.3445    1.1682   -0.9653 H   0  0  0  0  0  0  0  0  0  0  0  0
   -1.9970    0.2790    0.3394 H   0  0  0  0  0  0  0  0  0  0  0  0
   -0.6338    0.0883   -4.2065 C   0  0  0  0  0  0  0  0  0  0  0  0
    0.0417    0.8152   -4.0124 H   0  0  0  0  0  0  0  0  0  0  0  0
   -1.1348    0.3508   -5.0451 H   0  0  0  0  0  0  0  0  0  0  0  0
   -0.1120   -0.8534   -4.3760 H   0  0  0  0  0  0  0  0  0  0  0  0
   -1.7833   -0.0956   -2.8149 S   0  0  0  0  0  0  0  0  0  0  0  0
   -2.7989   -1.3770   -3.4930 C   0  0  0  0  0  0  0  0  0  0  0  0
   -3.7652   -1.2013   -3.2822 H   0  0  0  0  0  0  0  0  0  0  0  0
   -2.6876   -1.4161   -4.4907 H   0  0  0  0  0  0  0  0  0  0  0  0
   -2.5398   -2.2667   -3.1035 H   0  0  0  0  0  0  0  0  0  0  0  0
  1  5  1  0
  5  8  1  0
  1  2  1  0
  1  3  1  0
  1  4  1  0
  5  6  1  0
  5  7  1  0
  8  9  1  0
  8 10  1  0
  8 11  1  0
 12 16  1  0
 16 17  1  0
 12 13  1  0
 12 14  1  0
 12 15  1  0
 17 18  1  0
 17 19  1  0
 17 20  1  0
M  CHG  1   8   1
M  END
>  <PDB_ID>  (16) 
pdb1a7x

>  <RESIDUE_NAME>  (16) 
LYS   MET

>  <FRAG_NAME>  (16) 
ETAM   MSM

>  <FRAG_ATOM_NUM>  (16) 
fragi: 11  fragj: 9

>  <atom.prop.CHAIN_ID>  (16) 
A A A A A A A A A A A Z Z Z Z Z Z Z Z Z

>  <atom.prop.IS_HEAVY_ATOM>  (16) 
1 0 0 0 1 0 0 1 0 0 0 1 0 0 0 1 1 0 0 0

>  <DIFUSE_FUNC_ATOM>  (16) 
n/a

>  <FINAL_SINGLE_POINT_ENERGY>  (16) 
0

>  <NONCOV_INTER_ENERGY_QM>  (16) 
0

>  <FF_Energy>  (16) 
-3.23

>  <QM_Energy>  (16) 
-13.24

>  <source>  (16) 
ETAM_MSM

>  <Index>  (16) 
105

$$$$
ETAM-pdb2af4-C-LYS-218:MSM-pdb2af4-D-MET-177
     RDKit          3D

 20 18  0  0  0  0  0  0  0  0999 V2000
    1.2406    0.9010    0.0000 C   0  0  0  0  0  0  0  0  0  0  0  0
    1.2973    1.3720    0.8935 H   0  0  0  0  0  0  0  0  0  0  0  0
    1.1248    1.6091   -0.7131 H   0  0  0  0  0  0  0  0  0  0  0  0
    2.2008    0.4152   -0.1741 H   0  0  0  0  0  0  0  0  0  0  0  0
    0.0000    0.0000    0.0000 C   0  0  0  0  0  0  0  0  0  0  0  0
   -0.0055   -0.5497   -0.8163 H   0  0  0  0  0  0  0  0  0  0  0  0
   -0.0057   -0.5503    0.8169 H   0  0  0  0  0  0  0  0  0  0  0  0
   -1.2406    0.8866   -0.0000 N   0  0  0  0  0  4  0  0  0  0  0  0
   -2.0434    0.3023   -0.0386 H   0  0  0  0  0  0  0  0  0  0  0  0
   -1.2411    1.4255    0.8348 H   0  0  0  0  0  0  0  0  0  0  0  0
   -1.2022    1.4787   -0.7969 H   0  0  0  0  0  0  0  0  0  0  0  0
    2.2002    5.2320   -1.6087 C   0  0  0  0  0  0  0  0  0  0  0  0
    2.6200    5.2094   -2.5764 H   0  0  0  0  0  0  0  0  0  0  0  0
    2.9343    5.7734   -1.0772 H   0  0  0  0  0  0  0  0  0  0  0  0
    1.3071    5.8551   -1.6570 H   0  0  0  0  0  0  0  0  0  0  0  0
    2.0809    3.5276   -0.9416 S   0  0  0  0  0  0  0  0  0  0  0  0
    2.6490    3.7949    0.7093 C   0  0  0  0  0  0  0  0  0  0  0  0
    1.8799    3.7428    1.3551 H   0  0  0  0  0  0  0  0  0  0  0  0
    3.3277    3.0978    0.9611 H   0  0  0  0  0  0  0  0  0  0  0  0
    3.0753    4.7020    0.7882 H   0  0  0  0  0  0  0  0  0  0  0  0
  1  5  1  0
  5  8  1  0
  1  2  1  0
  1  3  1  0
  1  4  1  0
  5  6  1  0
  5  7  1  0
  8  9  1  0
  8 10  1  0
  8 11  1  0
 12 16  1  0
 16 17  1  0
 12 13  1  0
 12 14  1  0
 12 15  1  0
 17 18  1  0
 17 19  1  0
 17 20  1  0
M  CHG  1   8   1
M  END
>  <PDB_ID>  (17) 
pdb2af4

>  <RESIDUE_NAME>  (17) 
LYS   MET

>  <FRAG_NAME>  (17) 
ETAM   MSM

>  <FRAG_ATOM_NUM>  (17) 
fragi: 11  fragj: 9

>  <atom.prop.CHAIN_ID>  (17) 
A A A A A A A A A A A Z Z Z Z Z Z Z Z Z

>  <atom.prop.IS_HEAVY_ATOM>  (17) 
1 0 0 0 1 0 0 1 0 0 0 1 0 0 0 1 1 0 0 0

>  <DIFUSE_FUNC_ATOM>  (17) 
n/a

>  <FINAL_SINGLE_POINT_ENERGY>  (17) 
0

>  <NONCOV_INTER_ENERGY_QM>  (17) 
0

>  <FF_Energy>  (17) 
20.22

>  <QM_Energy>  (17) 
-0.71

>  <source>  (17) 
ETAM_MSM

>  <Index>  (17) 
107

$$$$
ETAM-pdb1a8g-B-LYS-20:MSM-pdb1a8g-B-MET-36
     RDKit          3D

 20 18  0  0  0  0  0  0  0  0999 V2000
    1.2100    0.9375    0.0000 C   0  0  0  0  0  0  0  0  0  0  0  0
    1.1122    1.5636    0.7454 H   0  0  0  0  0  0  0  0  0  0  0  0
    1.2531    1.3813   -0.8714 H   0  0  0  0  0  0  0  0  0  0  0  0
    2.0944    0.3178    0.1479 H   0  0  0  0  0  0  0  0  0  0  0  0
    0.0000    0.0000    0.0000 C   0  0  0  0  0  0  0  0  0  0  0  0
    0.0395   -0.5612   -0.8166 H   0  0  0  0  0  0  0  0  0  0  0  0
    0.0392   -0.5620    0.8167 H   0  0  0  0  0  0  0  0  0  0  0  0
   -1.2100    0.8134    0.0000 N   0  0  0  0  0  4  0  0  0  0  0  0
   -1.7699    0.6014   -0.8065 H   0  0  0  0  0  0  0  0  0  0  0  0
   -1.7515    0.6297    0.8266 H   0  0  0  0  0  0  0  0  0  0  0  0
   -0.9717    1.7894   -0.0194 H   0  0  0  0  0  0  0  0  0  0  0  0
   -2.8844    3.0748   -2.8436 C   0  0  0  0  0  0  0  0  0  0  0  0
   -2.6753    2.7539   -3.7645 H   0  0  0  0  0  0  0  0  0  0  0  0
   -3.4707    3.8802   -2.8891 H   0  0  0  0  0  0  0  0  0  0  0  0
   -3.3968    2.2852   -2.2940 H   0  0  0  0  0  0  0  0  0  0  0  0
   -1.3841    3.4207   -1.9268 S   0  0  0  0  0  0  0  0  0  0  0  0
   -2.1335    4.4161   -0.6716 C   0  0  0  0  0  0  0  0  0  0  0  0
   -2.7111    5.1250   -1.0887 H   0  0  0  0  0  0  0  0  0  0  0  0
   -2.7047    3.8467   -0.0719 H   0  0  0  0  0  0  0  0  0  0  0  0
   -1.4265    4.8632   -0.1148 H   0  0  0  0  0  0  0  0  0  0  0  0
  1  5  1  0
  5  8  1  0
  1  2  1  0
  1  3  1  0
  1  4  1  0
  5  6  1  0
  5  7  1  0
  8  9  1  0
  8 10  1  0
  8 11  1  0
 12 16  1  0
 16 17  1  0
 12 13  1  0
 12 14  1  0
 12 15  1  0
 17 18  1  0
 17 19  1  0
 17 20  1  0
M  CHG  1   8   1
M  END
>  <PDB_ID>  (18) 
pdb1a8g

>  <RESIDUE_NAME>  (18) 
LYS   MET

>  <FRAG_NAME>  (18) 
ETAM   MSM

>  <FRAG_ATOM_NUM>  (18) 
fragi: 11  fragj: 9

>  <atom.prop.CHAIN_ID>  (18) 
A A A A A A A A A A A Z Z Z Z Z Z Z Z Z

>  <atom.prop.IS_HEAVY_ATOM>  (18) 
1 0 0 0 1 0 0 1 0 0 0 1 0 0 0 1 1 0 0 0

>  <DIFUSE_FUNC_ATOM>  (18) 
n/a

>  <FINAL_SINGLE_POINT_ENERGY>  (18) 
0

>  <NONCOV_INTER_ENERGY_QM>  (18) 
0

>  <FF_Energy>  (18) 
-4.34

>  <QM_Energy>  (18) 
-12.02

>  <source>  (18) 
ETAM_MSM

>  <Index>  (18) 
119

$$$$
ETAM-pdb1a8l-A-LYS-215:MSM-pdb1a8l-A-MET-122
     RDKit          3D

 20 18  0  0  0  0  0  0  0  0999 V2000
    1.2521    0.8686   -0.0000 C   0  0  0  0  0  0  0  0  0  0  0  0
    1.6130    0.9024    0.9253 H   0  0  0  0  0  0  0  0  0  0  0  0
    1.0050    1.7787   -0.3114 H   0  0  0  0  0  0  0  0  0  0  0  0
    2.0160    0.4627   -0.6632 H   0  0  0  0  0  0  0  0  0  0  0  0
    0.0000    0.0000    0.0000 C   0  0  0  0  0  0  0  0  0  0  0  0
    0.0106   -0.5847   -0.8161 H   0  0  0  0  0  0  0  0  0  0  0  0
    0.0098   -0.5851    0.8164 H   0  0  0  0  0  0  0  0  0  0  0  0
   -1.2521    0.8141    0.0000 N   0  0  0  0  0  4  0  0  0  0  0  0
   -1.9068    0.4106    0.6377 H   0  0  0  0  0  0  0  0  0  0  0  0
   -1.0377    1.7474    0.2829 H   0  0  0  0  0  0  0  0  0  0  0  0
   -1.6391    0.8224   -0.9207 H   0  0  0  0  0  0  0  0  0  0  0  0
   -2.8082   -0.7652   -4.3640 C   0  0  0  0  0  0  0  0  0  0  0  0
   -3.4164   -1.5305   -4.6891 H   0  0  0  0  0  0  0  0  0  0  0  0
   -2.3477   -0.4146   -5.2165 H   0  0  0  0  0  0  0  0  0  0  0  0
   -3.4433    0.0282   -3.9702 H   0  0  0  0  0  0  0  0  0  0  0  0
   -1.5775   -1.3863   -3.1845 S   0  0  0  0  0  0  0  0  0  0  0  0
   -0.3093   -0.1305   -3.3126 C   0  0  0  0  0  0  0  0  0  0  0  0
   -0.3029    0.4275   -2.4818 H   0  0  0  0  0  0  0  0  0  0  0  0
    0.5851   -0.5655   -3.4258 H   0  0  0  0  0  0  0  0  0  0  0  0
   -0.4947    0.4557   -4.1037 H   0  0  0  0  0  0  0  0  0  0  0  0
  1  5  1  0
  5  8  1  0
  1  2  1  0
  1  3  1  0
  1  4  1  0
  5  6  1  0
  5  7  1  0
  8  9  1  0
  8 10  1  0
  8 11  1  0
 12 16  1  0
 16 17  1  0
 12 13  1  0
 12 14  1  0
 12 15  1  0
 17 18  1  0
 17 19  1  0
 17 20  1  0
M  CHG  1   8   1
M  END
>  <PDB_ID>  (19) 
pdb1a8l

>  <RESIDUE_NAME>  (19) 
LYS   MET

>  <FRAG_NAME>  (19) 
ETAM   MSM

>  <FRAG_ATOM_NUM>  (19) 
fragi: 11  fragj: 9

>  <atom.prop.CHAIN_ID>  (19) 
A A A A A A A A A A A Z Z Z Z Z Z Z Z Z

>  <atom.prop.IS_HEAVY_ATOM>  (19) 
1 0 0 0 1 0 0 1 0 0 0 1 0 0 0 1 1 0 0 0

>  <DIFUSE_FUNC_ATOM>  (19) 
n/a

>  <FINAL_SINGLE_POINT_ENERGY>  (19) 
0

>  <NONCOV_INTER_ENERGY_QM>  (19) 
0

>  <FF_Energy>  (19) 
0.08

>  <QM_Energy>  (19) 
-6.37

>  <source>  (19) 
ETAM_MSM

>  <Index>  (19) 
131

$$$$
ETAM-pdb1ae9-A-LYS-294:MSM-pdb1ae9-A-MET-290
     RDKit          3D

 20 18  0  0  0  0  0  0  0  0999 V2000
    1.2237    0.8743    0.0000 C   0  0  0  0  0  0  0  0  0  0  0  0
    1.2262    1.4273    0.8250 H   0  0  0  0  0  0  0  0  0  0  0  0
    1.2086    1.4521   -0.8080 H   0  0  0  0  0  0  0  0  0  0  0  0
    2.1276    0.2655   -0.0183 H   0  0  0  0  0  0  0  0  0  0  0  0
    0.0000    0.0000    0.0000 C   0  0  0  0  0  0  0  0  0  0  0  0
    0.0054   -0.5765   -0.8163 H   0  0  0  0  0  0  0  0  0  0  0  0
    0.0057   -0.5771    0.8160 H   0  0  0  0  0  0  0  0  0  0  0  0
   -1.2237    0.8331    0.0000 N   0  0  0  0  0  4  0  0  0  0  0  0
   -1.7797    0.6128    0.8033 H   0  0  0  0  0  0  0  0  0  0  0  0
   -0.9703    1.8008    0.0261 H   0  0  0  0  0  0  0  0  0  0  0  0
   -1.7534    0.6516   -0.8294 H   0  0  0  0  0  0  0  0  0  0  0  0
   -0.0327   -2.0200    3.8389 C   0  0  0  0  0  0  0  0  0  0  0  0
    0.5652   -2.4725    3.1421 H   0  0  0  0  0  0  0  0  0  0  0  0
   -0.9167   -2.5365    3.8243 H   0  0  0  0  0  0  0  0  0  0  0  0
    0.4252   -2.1427    4.8204 H   0  0  0  0  0  0  0  0  0  0  0  0
   -0.3021   -0.2825    3.4158 S   0  0  0  0  0  0  0  0  0  0  0  0
   -1.6206    0.1643    4.6221 C   0  0  0  0  0  0  0  0  0  0  0  0
   -1.7153   -0.5827    5.2694 H   0  0  0  0  0  0  0  0  0  0  0  0
   -1.3471    0.9984    5.0861 H   0  0  0  0  0  0  0  0  0  0  0  0
   -2.4659    0.3021    4.1206 H   0  0  0  0  0  0  0  0  0  0  0  0
  1  5  1  0
  5  8  1  0
  1  2  1  0
  1  3  1  0
  1  4  1  0
  5  6  1  0
  5  7  1  0
  8  9  1  0
  8 10  1  0
  8 11  1  0
 12 16  1  0
 16 17  1  0
 12 13  1  0
 12 14  1  0
 12 15  1  0
 17 18  1  0
 17 19  1  0
 17 20  1  0
M  CHG  1   8   1
M  END
>  <PDB_ID>  (20) 
pdb1ae9

>  <RESIDUE_NAME>  (20) 
LYS   MET

>  <FRAG_NAME>  (20) 
ETAM   MSM

>  <FRAG_ATOM_NUM>  (20) 
fragi: 11  fragj: 9

>  <atom.prop.CHAIN_ID>  (20) 
A A A A A A A A A A A Z Z Z Z Z Z Z Z Z

>  <atom.prop.IS_HEAVY_ATOM>  (20) 
1 0 0 0 1 0 0 1 0 0 0 1 0 0 0 1 1 0 0 0

>  <DIFUSE_FUNC_ATOM>  (20) 
n/a

>  <FINAL_SINGLE_POINT_ENERGY>  (20) 
0

>  <NONCOV_INTER_ENERGY_QM>  (20) 
0

>  <FF_Energy>  (20) 
-3.83

>  <QM_Energy>  (20) 
-11.89

>  <source>  (20) 
ETAM_MSM

>  <Index>  (20) 
138

$$$$
ETAM-pdb1ae9-B-LYS-294:MSM-pdb1ae9-B-MET-290
     RDKit          3D

 20 18  0  0  0  0  0  0  0  0999 V2000
    1.2276    0.8827    0.0000 C   0  0  0  0  0  0  0  0  0  0  0  0
    1.1617    1.5227    0.7609 H   0  0  0  0  0  0  0  0  0  0  0  0
    1.2656    1.3782   -0.8629 H   0  0  0  0  0  0  0  0  0  0  0  0
    2.1400    0.2967    0.1105 H   0  0  0  0  0  0  0  0  0  0  0  0
    0.0000    0.0000    0.0000 C   0  0  0  0  0  0  0  0  0  0  0  0
    0.0066   -0.5713   -0.8165 H   0  0  0  0  0  0  0  0  0  0  0  0
    0.0059   -0.5716    0.8167 H   0  0  0  0  0  0  0  0  0  0  0  0
   -1.2276    0.8400   -0.0000 N   0  0  0  0  0  4  0  0  0  0  0  0
   -0.9707    1.8045    0.0586 H   0  0  0  0  0  0  0  0  0  0  0  0
   -1.7388    0.6812   -0.8446 H   0  0  0  0  0  0  0  0  0  0  0  0
   -1.7960    0.5974    0.7858 H   0  0  0  0  0  0  0  0  0  0  0  0
   -0.0765   -1.8643    3.8854 C   0  0  0  0  0  0  0  0  0  0  0  0
    0.5574   -2.3145    3.2200 H   0  0  0  0  0  0  0  0  0  0  0  0
   -0.9341   -2.4223    3.8770 H   0  0  0  0  0  0  0  0  0  0  0  0
    0.3669   -1.9265    4.8792 H   0  0  0  0  0  0  0  0  0  0  0  0
   -0.4158   -0.1610    3.3958 S   0  0  0  0  0  0  0  0  0  0  0  0
   -1.7682    0.2445    4.5338 C   0  0  0  0  0  0  0  0  0  0  0  0
   -2.0698    1.1791    4.3596 H   0  0  0  0  0  0  0  0  0  0  0  0
   -2.5223   -0.3907    4.3818 H   0  0  0  0  0  0  0  0  0  0  0  0
   -1.4387    0.1625    5.4717 H   0  0  0  0  0  0  0  0  0  0  0  0
  1  5  1  0
  5  8  1  0
  1  2  1  0
  1  3  1  0
  1  4  1  0
  5  6  1  0
  5  7  1  0
  8  9  1  0
  8 10  1  0
  8 11  1  0
 12 16  1  0
 16 17  1  0
 12 13  1  0
 12 14  1  0
 12 15  1  0
 17 18  1  0
 17 19  1  0
 17 20  1  0
M  CHG  1   8   1
M  END
>  <PDB_ID>  (21) 
pdb1ae9

>  <RESIDUE_NAME>  (21) 
LYS   MET

>  <FRAG_NAME>  (21) 
ETAM   MSM

>  <FRAG_ATOM_NUM>  (21) 
fragi: 11  fragj: 9

>  <atom.prop.CHAIN_ID>  (21) 
A A A A A A A A A A A Z Z Z Z Z Z Z Z Z

>  <atom.prop.IS_HEAVY_ATOM>  (21) 
1 0 0 0 1 0 0 1 0 0 0 1 0 0 0 1 1 0 0 0

>  <DIFUSE_FUNC_ATOM>  (21) 
n/a

>  <FINAL_SINGLE_POINT_ENERGY>  (21) 
0

>  <NONCOV_INTER_ENERGY_QM>  (21) 
0

>  <FF_Energy>  (21) 
-4.09

>  <QM_Energy>  (21) 
-12.43

>  <source>  (21) 
ETAM_MSM

>  <Index>  (21) 
139

$$$$
ETAM-pdb1af2-A-LYS-208:MSM-pdb1af2-A-MET-204
     RDKit          3D

 20 18  0  0  0  0  0  0  0  0999 V2000
    1.2258    0.9079    0.0000 C   0  0  0  0  0  0  0  0  0  0  0  0
    1.0710    1.6477    0.6480 H   0  0  0  0  0  0  0  0  0  0  0  0
    1.3482    1.2730   -0.9174 H   0  0  0  0  0  0  0  0  0  0  0  0
    2.1285    0.3699    0.2894 H   0  0  0  0  0  0  0  0  0  0  0  0
    0.0000    0.0000    0.0000 C   0  0  0  0  0  0  0  0  0  0  0  0
    0.0385   -0.5809   -0.8159 H   0  0  0  0  0  0  0  0  0  0  0  0
    0.0379   -0.5809    0.8162 H   0  0  0  0  0  0  0  0  0  0  0  0
   -1.2258    0.7851    0.0000 N   0  0  0  0  0  4  0  0  0  0  0  0
   -1.5425    0.9354    0.9416 H   0  0  0  0  0  0  0  0  0  0  0  0
   -1.0664    1.6784   -0.4328 H   0  0  0  0  0  0  0  0  0  0  0  0
   -1.9464    0.3042   -0.5093 H   0  0  0  0  0  0  0  0  0  0  0  0
   -1.3136    2.7490    5.0170 C   0  0  0  0  0  0  0  0  0  0  0  0
   -0.9908    2.1286    5.7817 H   0  0  0  0  0  0  0  0  0  0  0  0
   -2.2154    3.1238    5.3644 H   0  0  0  0  0  0  0  0  0  0  0  0
   -0.6123    3.5804    4.9456 H   0  0  0  0  0  0  0  0  0  0  0  0
   -1.5457    1.8261    3.4961 S   0  0  0  0  0  0  0  0  0  0  0  0
   -1.8126    0.2012    4.1102 C   0  0  0  0  0  0  0  0  0  0  0  0
   -2.5632   -0.2453    3.6102 H   0  0  0  0  0  0  0  0  0  0  0  0
   -0.9815   -0.3574    4.0029 H   0  0  0  0  0  0  0  0  0  0  0  0
   -2.0531    0.2291    5.0876 H   0  0  0  0  0  0  0  0  0  0  0  0
  1  5  1  0
  5  8  1  0
  1  2  1  0
  1  3  1  0
  1  4  1  0
  5  6  1  0
  5  7  1  0
  8  9  1  0
  8 10  1  0
  8 11  1  0
 12 16  1  0
 16 17  1  0
 12 13  1  0
 12 14  1  0
 12 15  1  0
 17 18  1  0
 17 19  1  0
 17 20  1  0
M  CHG  1   8   1
M  END
>  <PDB_ID>  (22) 
pdb1af2

>  <RESIDUE_NAME>  (22) 
LYS   MET

>  <FRAG_NAME>  (22) 
ETAM   MSM

>  <FRAG_ATOM_NUM>  (22) 
fragi: 11  fragj: 9

>  <atom.prop.CHAIN_ID>  (22) 
A A A A A A A A A A A Z Z Z Z Z Z Z Z Z

>  <atom.prop.IS_HEAVY_ATOM>  (22) 
1 0 0 0 1 0 0 1 0 0 0 1 0 0 0 1 1 0 0 0

>  <DIFUSE_FUNC_ATOM>  (22) 
n/a

>  <FINAL_SINGLE_POINT_ENERGY>  (22) 
0

>  <NONCOV_INTER_ENERGY_QM>  (22) 
0

>  <FF_Energy>  (22) 
-5.44

>  <QM_Energy>  (22) 
-11.08

>  <source>  (22) 
ETAM_MSM

>  <Index>  (22) 
142

$$$$
ETAM-pdb1ab8-A-LYS-938:MSM-pdb1ab8-A-MET-945
     RDKit          3D

 20 18  0  0  0  0  0  0  0  0999 V2000
    1.2765    0.8551   -0.0000 C   0  0  0  0  0  0  0  0  0  0  0  0
    1.1071    1.6757   -0.5596 H   0  0  0  0  0  0  0  0  0  0  0  0
    2.0127    0.3221   -0.4338 H   0  0  0  0  0  0  0  0  0  0  0  0
    1.6212    1.1782    0.9822 H   0  0  0  0  0  0  0  0  0  0  0  0
    0.0000    0.0000    0.0000 C   0  0  0  0  0  0  0  0  0  0  0  0
    0.0113   -0.5946   -0.8167 H   0  0  0  0  0  0  0  0  0  0  0  0
    0.0113   -0.5950    0.8167 H   0  0  0  0  0  0  0  0  0  0  0  0
   -1.2765    0.7981    0.0000 N   0  0  0  0  0  4  0  0  0  0  0  0
   -1.9174    0.3814   -0.6400 H   0  0  0  0  0  0  0  0  0  0  0  0
   -1.6603    0.7931    0.9197 H   0  0  0  0  0  0  0  0  0  0  0  0
   -1.0726    1.7323   -0.2803 H   0  0  0  0  0  0  0  0  0  0  0  0
    0.0400   -0.7967    5.7049 C   0  0  0  0  0  0  0  0  0  0  0  0
    0.7163   -1.3140    6.2823 H   0  0  0  0  0  0  0  0  0  0  0  0
   -0.8358   -0.8078    6.2455 H   0  0  0  0  0  0  0  0  0  0  0  0
    0.3793    0.2359    5.6236 H   0  0  0  0  0  0  0  0  0  0  0  0
   -0.1840   -1.6002    4.1103 S   0  0  0  0  0  0  0  0  0  0  0  0
   -0.8773   -0.3759    3.1849 C   0  0  0  0  0  0  0  0  0  0  0  0
   -1.8685   -0.2465    3.3904 H   0  0  0  0  0  0  0  0  0  0  0  0
   -0.4317    0.5290    3.3393 H   0  0  0  0  0  0  0  0  0  0  0  0
   -0.8132   -0.5606    2.1831 H   0  0  0  0  0  0  0  0  0  0  0  0
  1  5  1  0
  5  8  1  0
  1  2  1  0
  1  3  1  0
  1  4  1  0
  5  6  1  0
  5  7  1  0
  8  9  1  0
  8 10  1  0
  8 11  1  0
 12 16  1  0
 16 17  1  0
 12 13  1  0
 12 14  1  0
 12 15  1  0
 17 18  1  0
 17 19  1  0
 17 20  1  0
M  CHG  1   8   1
M  END
>  <PDB_ID>  (23) 
pdb1ab8

>  <RESIDUE_NAME>  (23) 
LYS   MET

>  <FRAG_NAME>  (23) 
ETAM   MSM

>  <FRAG_ATOM_NUM>  (23) 
fragi: 11  fragj: 9

>  <atom.prop.CHAIN_ID>  (23) 
A A A A A A A A A A A Z Z Z Z Z Z Z Z Z

>  <atom.prop.IS_HEAVY_ATOM>  (23) 
1 0 0 0 1 0 0 1 0 0 0 1 0 0 0 1 1 0 0 0

>  <DIFUSE_FUNC_ATOM>  (23) 
n/a

>  <FINAL_SINGLE_POINT_ENERGY>  (23) 
0

>  <NONCOV_INTER_ENERGY_QM>  (23) 
0

>  <FF_Energy>  (23) 
16.91

>  <QM_Energy>  (23) 
2.11

>  <source>  (23) 
ETAM_MSM

>  <Index>  (23) 
147

$$$$
ETAM-pdb2ao9-A-LYS-90:MSM-pdb2ao9-A-MET-41
     RDKit          3D

 20 18  0  0  0  0  0  0  0  0999 V2000
    1.2453    0.8921    0.0000 C   0  0  0  0  0  0  0  0  0  0  0  0
    1.4244    1.1754    0.9314 H   0  0  0  0  0  0  0  0  0  0  0  0
    1.0680    1.6713   -0.5840 H   0  0  0  0  0  0  0  0  0  0  0  0
    2.1051    0.3413   -0.3814 H   0  0  0  0  0  0  0  0  0  0  0  0
    0.0000    0.0000    0.0000 C   0  0  0  0  0  0  0  0  0  0  0  0
    0.0280   -0.5843   -0.8160 H   0  0  0  0  0  0  0  0  0  0  0  0
    0.0284   -0.5838    0.8168 H   0  0  0  0  0  0  0  0  0  0  0  0
   -1.2453    0.7929   -0.0000 N   0  0  0  0  0  4  0  0  0  0  0  0
   -2.0366    0.1785    0.0099 H   0  0  0  0  0  0  0  0  0  0  0  0
   -1.2723    1.3793    0.8111 H   0  0  0  0  0  0  0  0  0  0  0  0
   -1.2815    1.3642   -0.8221 H   0  0  0  0  0  0  0  0  0  0  0  0
   -5.5497    0.4154   -1.0560 C   0  0  0  0  0  0  0  0  0  0  0  0
   -5.1194   -0.4647   -1.4193 H   0  0  0  0  0  0  0  0  0  0  0  0
   -6.3068    0.6060   -1.7513 H   0  0  0  0  0  0  0  0  0  0  0  0
   -6.0232    0.1848   -0.1017 H   0  0  0  0  0  0  0  0  0  0  0  0
   -4.3223    1.7700   -1.0801 S   0  0  0  0  0  0  0  0  0  0  0  0
   -5.4375    3.1676   -1.1958 C   0  0  0  0  0  0  0  0  0  0  0  0
   -6.2222    2.9244   -1.7681 H   0  0  0  0  0  0  0  0  0  0  0  0
   -5.7587    3.4168   -0.2813 H   0  0  0  0  0  0  0  0  0  0  0  0
   -4.9582    3.9459   -1.6031 H   0  0  0  0  0  0  0  0  0  0  0  0
  1  5  1  0
  5  8  1  0
  1  2  1  0
  1  3  1  0
  1  4  1  0
  5  6  1  0
  5  7  1  0
  8  9  1  0
  8 10  1  0
  8 11  1  0
 12 16  1  0
 16 17  1  0
 12 13  1  0
 12 14  1  0
 12 15  1  0
 17 18  1  0
 17 19  1  0
 17 20  1  0
M  CHG  1   8   1
M  END
>  <PDB_ID>  (24) 
pdb2ao9

>  <RESIDUE_NAME>  (24) 
LYS   MET

>  <FRAG_NAME>  (24) 
ETAM   MSM

>  <FRAG_ATOM_NUM>  (24) 
fragi: 11  fragj: 9

>  <atom.prop.CHAIN_ID>  (24) 
A A A A A A A A A A A Z Z Z Z Z Z Z Z Z

>  <atom.prop.IS_HEAVY_ATOM>  (24) 
1 0 0 0 1 0 0 1 0 0 0 1 0 0 0 1 1 0 0 0

>  <DIFUSE_FUNC_ATOM>  (24) 
n/a

>  <FINAL_SINGLE_POINT_ENERGY>  (24) 
0

>  <NONCOV_INTER_ENERGY_QM>  (24) 
0

>  <FF_Energy>  (24) 
-5.3

>  <QM_Energy>  (24) 
-11.96

>  <source>  (24) 
ETAM_MSM

>  <Index>  (24) 
148

$$$$
ETAM-pdb1aih-B-LYS-223:MSM-pdb1aih-B-MET-220
     RDKit          3D

 20 18  0  0  0  0  0  0  0  0999 V2000
    1.2461    0.8740    0.0000 C   0  0  0  0  0  0  0  0  0  0  0  0
    2.0508    0.2840    0.0348 H   0  0  0  0  0  0  0  0  0  0  0  0
    1.2240    1.4608    0.8071 H   0  0  0  0  0  0  0  0  0  0  0  0
    1.3188    1.5049   -0.8858 H   0  0  0  0  0  0  0  0  0  0  0  0
    0.0000    0.0000    0.0000 C   0  0  0  0  0  0  0  0  0  0  0  0
    0.0121   -0.5831   -0.8167 H   0  0  0  0  0  0  0  0  0  0  0  0
    0.0125   -0.5835    0.8164 H   0  0  0  0  0  0  0  0  0  0  0  0
   -1.2461    0.8148    0.0000 N   0  0  0  0  0  4  0  0  0  0  0  0
   -2.0087    0.2541   -0.3198 H   0  0  0  0  0  0  0  0  0  0  0  0
   -1.4324    1.1355    0.9286 H   0  0  0  0  0  0  0  0  0  0  0  0
   -1.1293    1.5991   -0.6079 H   0  0  0  0  0  0  0  0  0  0  0  0
    0.0996    5.2557    1.3813 C   0  0  0  0  0  0  0  0  0  0  0  0
    1.0586    5.2645    1.7016 H   0  0  0  0  0  0  0  0  0  0  0  0
   -0.3442    6.1010    1.7155 H   0  0  0  0  0  0  0  0  0  0  0  0
    0.0848    5.2464    0.2915 H   0  0  0  0  0  0  0  0  0  0  0  0
   -0.7651    3.7965    2.0065 S   0  0  0  0  0  0  0  0  0  0  0  0
   -2.4692    4.0789    1.3507 C   0  0  0  0  0  0  0  0  0  0  0  0
   -2.5283    3.6571    0.4547 H   0  0  0  0  0  0  0  0  0  0  0  0
   -3.1136    3.6626    1.9799 H   0  0  0  0  0  0  0  0  0  0  0  0
   -2.6167    5.0580    1.2903 H   0  0  0  0  0  0  0  0  0  0  0  0
  1  5  1  0
  5  8  1  0
  1  2  1  0
  1  3  1  0
  1  4  1  0
  5  6  1  0
  5  7  1  0
  8  9  1  0
  8 10  1  0
  8 11  1  0
 12 16  1  0
 16 17  1  0
 12 13  1  0
 12 14  1  0
 12 15  1  0
 17 18  1  0
 17 19  1  0
 17 20  1  0
M  CHG  1   8   1
M  END
>  <PDB_ID>  (25) 
pdb1aih

>  <RESIDUE_NAME>  (25) 
LYS   MET

>  <FRAG_NAME>  (25) 
ETAM   MSM

>  <FRAG_ATOM_NUM>  (25) 
fragi: 11  fragj: 9

>  <atom.prop.CHAIN_ID>  (25) 
A A A A A A A A A A A Z Z Z Z Z Z Z Z Z

>  <atom.prop.IS_HEAVY_ATOM>  (25) 
1 0 0 0 1 0 0 1 0 0 0 1 0 0 0 1 1 0 0 0

>  <DIFUSE_FUNC_ATOM>  (25) 
n/a

>  <FINAL_SINGLE_POINT_ENERGY>  (25) 
0

>  <NONCOV_INTER_ENERGY_QM>  (25) 
0

>  <FF_Energy>  (25) 
-4.22

>  <QM_Energy>  (25) 
-10.17

>  <source>  (25) 
ETAM_MSM

>  <Index>  (25) 
160

$$$$
ETAM-pdb2ao9-C-LYS-90:MSM-pdb2ao9-C-MET-41
     RDKit          3D

 20 18  0  0  0  0  0  0  0  0999 V2000
    1.2631    0.9071   -0.0000 C   0  0  0  0  0  0  0  0  0  0  0  0
    1.4510    1.1585    0.9281 H   0  0  0  0  0  0  0  0  0  0  0  0
    1.0772    1.6789   -0.5736 H   0  0  0  0  0  0  0  0  0  0  0  0
    2.0997    0.3378   -0.4052 H   0  0  0  0  0  0  0  0  0  0  0  0
    0.0000    0.0000    0.0000 C   0  0  0  0  0  0  0  0  0  0  0  0
    0.0338   -0.5783   -0.8162 H   0  0  0  0  0  0  0  0  0  0  0  0
    0.0335   -0.5795    0.8168 H   0  0  0  0  0  0  0  0  0  0  0  0
   -1.2631    0.7930    0.0000 N   0  0  0  0  0  4  0  0  0  0  0  0
   -1.1825    1.5427    0.6553 H   0  0  0  0  0  0  0  0  0  0  0  0
   -1.4209    1.1617   -0.9153 H   0  0  0  0  0  0  0  0  0  0  0  0
   -2.0246    0.2006    0.2598 H   0  0  0  0  0  0  0  0  0  0  0  0
   -5.5513    0.5185   -1.1659 C   0  0  0  0  0  0  0  0  0  0  0  0
   -5.0588   -0.3505   -1.4673 H   0  0  0  0  0  0  0  0  0  0  0  0
   -6.2559    0.6616   -1.9223 H   0  0  0  0  0  0  0  0  0  0  0  0
   -6.0851    0.3015   -0.2407 H   0  0  0  0  0  0  0  0  0  0  0  0
   -4.3787    1.9204   -1.1343 S   0  0  0  0  0  0  0  0  0  0  0  0
   -5.4923    3.2186   -1.6515 C   0  0  0  0  0  0  0  0  0  0  0  0
   -5.3836    3.3864   -2.6331 H   0  0  0  0  0  0  0  0  0  0  0  0
   -6.4385    2.9463   -1.4664 H   0  0  0  0  0  0  0  0  0  0  0  0
   -5.2867    4.0602   -1.1483 H   0  0  0  0  0  0  0  0  0  0  0  0
  1  5  1  0
  5  8  1  0
  1  2  1  0
  1  3  1  0
  1  4  1  0
  5  6  1  0
  5  7  1  0
  8  9  1  0
  8 10  1  0
  8 11  1  0
 12 16  1  0
 16 17  1  0
 12 13  1  0
 12 14  1  0
 12 15  1  0
 17 18  1  0
 17 19  1  0
 17 20  1  0
M  CHG  1   8   1
M  END
>  <PDB_ID>  (26) 
pdb2ao9

>  <RESIDUE_NAME>  (26) 
LYS   MET

>  <FRAG_NAME>  (26) 
ETAM   MSM

>  <FRAG_ATOM_NUM>  (26) 
fragi: 11  fragj: 9

>  <atom.prop.CHAIN_ID>  (26) 
A A A A A A A A A A A Z Z Z Z Z Z Z Z Z

>  <atom.prop.IS_HEAVY_ATOM>  (26) 
1 0 0 0 1 0 0 1 0 0 0 1 0 0 0 1 1 0 0 0

>  <DIFUSE_FUNC_ATOM>  (26) 
n/a

>  <FINAL_SINGLE_POINT_ENERGY>  (26) 
0

>  <NONCOV_INTER_ENERGY_QM>  (26) 
0

>  <FF_Energy>  (26) 
-5.14

>  <QM_Energy>  (26) 
-11.33

>  <source>  (26) 
ETAM_MSM

>  <Index>  (26) 
162

$$$$
ETAM-pdb2ao9-D-LYS-90:MSM-pdb2ao9-D-MET-41
     RDKit          3D

 20 18  0  0  0  0  0  0  0  0999 V2000
    1.2491    0.9093    0.0000 C   0  0  0  0  0  0  0  0  0  0  0  0
    1.3736    1.2562    0.9149 H   0  0  0  0  0  0  0  0  0  0  0  0
    1.0967    1.6364   -0.6490 H   0  0  0  0  0  0  0  0  0  0  0  0
    2.1269    0.3342   -0.2948 H   0  0  0  0  0  0  0  0  0  0  0  0
    0.0000    0.0000    0.0000 C   0  0  0  0  0  0  0  0  0  0  0  0
    0.0226   -0.5675   -0.8163 H   0  0  0  0  0  0  0  0  0  0  0  0
    0.0226   -0.5686    0.8163 H   0  0  0  0  0  0  0  0  0  0  0  0
   -1.2491    0.8240   -0.0000 N   0  0  0  0  0  4  0  0  0  0  0  0
   -2.0051    0.2724   -0.3464 H   0  0  0  0  0  0  0  0  0  0  0  0
   -1.4468    1.1197    0.9323 H   0  0  0  0  0  0  0  0  0  0  0  0
   -1.1155    1.6206   -0.5862 H   0  0  0  0  0  0  0  0  0  0  0  0
   -5.4259    0.5121   -1.4137 C   0  0  0  0  0  0  0  0  0  0  0  0
   -4.8943   -0.3417   -1.6718 H   0  0  0  0  0  0  0  0  0  0  0  0
   -6.0834    0.6421   -2.2069 H   0  0  0  0  0  0  0  0  0  0  0  0
   -6.0035    0.3020   -0.5136 H   0  0  0  0  0  0  0  0  0  0  0  0
   -4.2973    1.9377   -1.3018 S   0  0  0  0  0  0  0  0  0  0  0  0
   -5.4280    3.2384   -1.7855 C   0  0  0  0  0  0  0  0  0  0  0  0
   -5.0198    3.7829   -2.5205 H   0  0  0  0  0  0  0  0  0  0  0  0
   -6.2857    2.8356   -2.1090 H   0  0  0  0  0  0  0  0  0  0  0  0
   -5.6154    3.8299   -1.0003 H   0  0  0  0  0  0  0  0  0  0  0  0
  1  5  1  0
  5  8  1  0
  1  2  1  0
  1  3  1  0
  1  4  1  0
  5  6  1  0
  5  7  1  0
  8  9  1  0
  8 10  1  0
  8 11  1  0
 12 16  1  0
 16 17  1  0
 12 13  1  0
 12 14  1  0
 12 15  1  0
 17 18  1  0
 17 19  1  0
 17 20  1  0
M  CHG  1   8   1
M  END
>  <PDB_ID>  (27) 
pdb2ao9

>  <RESIDUE_NAME>  (27) 
LYS   MET

>  <FRAG_NAME>  (27) 
ETAM   MSM

>  <FRAG_ATOM_NUM>  (27) 
fragi: 11  fragj: 9

>  <atom.prop.CHAIN_ID>  (27) 
A A A A A A A A A A A Z Z Z Z Z Z Z Z Z

>  <atom.prop.IS_HEAVY_ATOM>  (27) 
1 0 0 0 1 0 0 1 0 0 0 1 0 0 0 1 1 0 0 0

>  <DIFUSE_FUNC_ATOM>  (27) 
n/a

>  <FINAL_SINGLE_POINT_ENERGY>  (27) 
0

>  <NONCOV_INTER_ENERGY_QM>  (27) 
0

>  <FF_Energy>  (27) 
-5.1

>  <QM_Energy>  (27) 
-10.9

>  <source>  (27) 
ETAM_MSM

>  <Index>  (27) 
164

$$$$
ETAM-pdb1aix-H-LYS-109:MSM-pdb1aix-H-MET-84
     RDKit          3D

 20 18  0  0  0  0  0  0  0  0999 V2000
    1.2352    0.9095   -0.0000 C   0  0  0  0  0  0  0  0  0  0  0  0
    1.3135    1.3320    0.8783 H   0  0  0  0  0  0  0  0  0  0  0  0
    1.1515    1.5525   -0.7319 H   0  0  0  0  0  0  0  0  0  0  0  0
    2.1133    0.2873   -0.1729 H   0  0  0  0  0  0  0  0  0  0  0  0
    0.0000    0.0000    0.0000 C   0  0  0  0  0  0  0  0  0  0  0  0
    0.0152   -0.5617   -0.8164 H   0  0  0  0  0  0  0  0  0  0  0  0
    0.0154   -0.5617    0.8166 H   0  0  0  0  0  0  0  0  0  0  0  0
   -1.2352    0.8429   -0.0000 N   0  0  0  0  0  4  0  0  0  0  0  0
   -2.0119    0.2874    0.2928 H   0  0  0  0  0  0  0  0  0  0  0  0
   -1.1105    1.6070    0.6307 H   0  0  0  0  0  0  0  0  0  0  0  0
   -1.3962    1.1884   -0.9226 H   0  0  0  0  0  0  0  0  0  0  0  0
    0.0384    2.3555    4.2741 C   0  0  0  0  0  0  0  0  0  0  0  0
   -0.6922    1.9060    4.8215 H   0  0  0  0  0  0  0  0  0  0  0  0
    0.5615    2.9480    4.9152 H   0  0  0  0  0  0  0  0  0  0  0  0
    0.7038    1.5890    3.8770 H   0  0  0  0  0  0  0  0  0  0  0  0
   -0.7093    3.3746    2.9398 S   0  0  0  0  0  0  0  0  0  0  0  0
   -1.4517    4.5751    4.0479 C   0  0  0  0  0  0  0  0  0  0  0  0
   -2.3609    4.2590    4.3218 H   0  0  0  0  0  0  0  0  0  0  0  0
   -0.8763    4.6803    4.8601 H   0  0  0  0  0  0  0  0  0  0  0  0
   -1.5320    5.4563    3.5803 H   0  0  0  0  0  0  0  0  0  0  0  0
  1  5  1  0
  5  8  1  0
  1  2  1  0
  1  3  1  0
  1  4  1  0
  5  6  1  0
  5  7  1  0
  8  9  1  0
  8 10  1  0
  8 11  1  0
 12 16  1  0
 16 17  1  0
 12 13  1  0
 12 14  1  0
 12 15  1  0
 17 18  1  0
 17 19  1  0
 17 20  1  0
M  CHG  1   8   1
M  END
>  <PDB_ID>  (28) 
pdb1aix

>  <RESIDUE_NAME>  (28) 
LYS   MET

>  <FRAG_NAME>  (28) 
ETAM   MSM

>  <FRAG_ATOM_NUM>  (28) 
fragi: 11  fragj: 9

>  <atom.prop.CHAIN_ID>  (28) 
A A A A A A A A A A A Z Z Z Z Z Z Z Z Z

>  <atom.prop.IS_HEAVY_ATOM>  (28) 
1 0 0 0 1 0 0 1 0 0 0 1 0 0 0 1 1 0 0 0

>  <DIFUSE_FUNC_ATOM>  (28) 
n/a

>  <FINAL_SINGLE_POINT_ENERGY>  (28) 
0

>  <NONCOV_INTER_ENERGY_QM>  (28) 
0

>  <FF_Energy>  (28) 
-4.92

>  <QM_Energy>  (28) 
-11.02

>  <source>  (28) 
ETAM_MSM

>  <Index>  (28) 
166

$$$$
ETAM-pdb1ak2-A-LYS-64:MSM-pdb1ak2-A-MET-79
     RDKit          3D

 20 18  0  0  0  0  0  0  0  0999 V2000
    1.2789    0.8731    0.0000 C   0  0  0  0  0  0  0  0  0  0  0  0
    2.0539    0.2821    0.1844 H   0  0  0  0  0  0  0  0  0  0  0  0
    1.1808    1.5588    0.7095 H   0  0  0  0  0  0  0  0  0  0  0  0
    1.4277    1.3687   -0.9594 H   0  0  0  0  0  0  0  0  0  0  0  0
    0.0000    0.0000    0.0000 C   0  0  0  0  0  0  0  0  0  0  0  0
    0.0189   -0.5886   -0.8162 H   0  0  0  0  0  0  0  0  0  0  0  0
    0.0182   -0.5897    0.8164 H   0  0  0  0  0  0  0  0  0  0  0  0
   -1.2789    0.7973   -0.0000 N   0  0  0  0  0  4  0  0  0  0  0  0
   -1.3014    1.3700   -0.8150 H   0  0  0  0  0  0  0  0  0  0  0  0
   -2.0509    0.1675   -0.0032 H   0  0  0  0  0  0  0  0  0  0  0  0
   -1.3045    1.3661    0.8183 H   0  0  0  0  0  0  0  0  0  0  0  0
   -2.1226    5.2956    0.5488 C   0  0  0  0  0  0  0  0  0  0  0  0
   -2.0066    6.0374   -0.1296 H   0  0  0  0  0  0  0  0  0  0  0  0
   -1.4120    5.4171    1.2589 H   0  0  0  0  0  0  0  0  0  0  0  0
   -3.1123    5.3613    1.0009 H   0  0  0  0  0  0  0  0  0  0  0  0
   -1.9538    3.6908   -0.2412 S   0  0  0  0  0  0  0  0  0  0  0  0
   -3.5220    3.4909   -1.0488 C   0  0  0  0  0  0  0  0  0  0  0  0
   -3.8214    2.5353   -0.9863 H   0  0  0  0  0  0  0  0  0  0  0  0
   -4.2108    4.0766   -0.6128 H   0  0  0  0  0  0  0  0  0  0  0  0
   -3.4452    3.7447   -2.0166 H   0  0  0  0  0  0  0  0  0  0  0  0
  1  5  1  0
  5  8  1  0
  1  2  1  0
  1  3  1  0
  1  4  1  0
  5  6  1  0
  5  7  1  0
  8  9  1  0
  8 10  1  0
  8 11  1  0
 12 16  1  0
 16 17  1  0
 12 13  1  0
 12 14  1  0
 12 15  1  0
 17 18  1  0
 17 19  1  0
 17 20  1  0
M  CHG  1   8   1
M  END
>  <PDB_ID>  (29) 
pdb1ak2

>  <RESIDUE_NAME>  (29) 
LYS   MET

>  <FRAG_NAME>  (29) 
ETAM   MSM

>  <FRAG_ATOM_NUM>  (29) 
fragi: 11  fragj: 9

>  <atom.prop.CHAIN_ID>  (29) 
A A A A A A A A A A A Z Z Z Z Z Z Z Z Z

>  <atom.prop.IS_HEAVY_ATOM>  (29) 
1 0 0 0 1 0 0 1 0 0 0 1 0 0 0 1 1 0 0 0

>  <DIFUSE_FUNC_ATOM>  (29) 
n/a

>  <FINAL_SINGLE_POINT_ENERGY>  (29) 
0

>  <NONCOV_INTER_ENERGY_QM>  (29) 
0

>  <FF_Energy>  (29) 
-2.92

>  <QM_Energy>  (29) 
-11.73

>  <source>  (29) 
ETAM_MSM

>  <Index>  (29) 
172

$$$$
ETAM-pdb1am7-A-LYS-89:MSM-pdb1am7-A-MET-1
     RDKit          3D

 20 18  0  0  0  0  0  0  0  0999 V2000
    1.3073    0.8326   -0.0000 C   0  0  0  0  0  0  0  0  0  0  0  0
    1.4760    1.1380    0.9167 H   0  0  0  0  0  0  0  0  0  0  0  0
    1.1976    1.5749   -0.6317 H   0  0  0  0  0  0  0  0  0  0  0  0
    2.1348    0.2024   -0.3260 H   0  0  0  0  0  0  0  0  0  0  0  0
    0.0000    0.0000    0.0000 C   0  0  0  0  0  0  0  0  0  0  0  0
    0.0209   -0.6189   -0.8164 H   0  0  0  0  0  0  0  0  0  0  0  0
    0.0211   -0.6189    0.8165 H   0  0  0  0  0  0  0  0  0  0  0  0
   -1.3073    0.7479   -0.0000 N   0  0  0  0  0  4  0  0  0  0  0  0
   -1.7154    0.6836   -0.9069 H   0  0  0  0  0  0  0  0  0  0  0  0
   -1.9130    0.3390    0.6772 H   0  0  0  0  0  0  0  0  0  0  0  0
   -1.1336    1.7020    0.2291 H   0  0  0  0  0  0  0  0  0  0  0  0
   -0.4562   -3.7662   -3.4124 C   0  0  0  0  0  0  0  0  0  0  0  0
   -0.7323   -4.7321   -3.1291 H   0  0  0  0  0  0  0  0  0  0  0  0
    0.3198   -3.9360   -4.0902 H   0  0  0  0  0  0  0  0  0  0  0  0
   -1.2895   -3.3382   -3.9694 H   0  0  0  0  0  0  0  0  0  0  0  0
    0.1613   -2.8342   -1.9634 S   0  0  0  0  0  0  0  0  0  0  0  0
    1.4467   -3.9707   -1.3119 C   0  0  0  0  0  0  0  0  0  0  0  0
    1.2409   -4.8904   -1.6277 H   0  0  0  0  0  0  0  0  0  0  0  0
    2.3313   -3.6743   -1.6553 H   0  0  0  0  0  0  0  0  0  0  0  0
    1.4271   -3.9309   -0.3191 H   0  0  0  0  0  0  0  0  0  0  0  0
  1  5  1  0
  5  8  1  0
  1  2  1  0
  1  3  1  0
  1  4  1  0
  5  6  1  0
  5  7  1  0
  8  9  1  0
  8 10  1  0
  8 11  1  0
 12 16  1  0
 16 17  1  0
 12 13  1  0
 12 14  1  0
 12 15  1  0
 17 18  1  0
 17 19  1  0
 17 20  1  0
M  CHG  1   8   1
M  END
>  <PDB_ID>  (30) 
pdb1am7

>  <RESIDUE_NAME>  (30) 
LYS   MET

>  <FRAG_NAME>  (30) 
ETAM   MSM

>  <FRAG_ATOM_NUM>  (30) 
fragi: 11  fragj: 9

>  <atom.prop.CHAIN_ID>  (30) 
A A A A A A A A A A A Z Z Z Z Z Z Z Z Z

>  <atom.prop.IS_HEAVY_ATOM>  (30) 
1 0 0 0 1 0 0 1 0 0 0 1 0 0 0 1 1 0 0 0

>  <DIFUSE_FUNC_ATOM>  (30) 
n/a

>  <FINAL_SINGLE_POINT_ENERGY>  (30) 
0

>  <NONCOV_INTER_ENERGY_QM>  (30) 
0

>  <FF_Energy>  (30) 
-1.87

>  <QM_Energy>  (30) 
-8.21

>  <source>  (30) 
ETAM_MSM

>  <Index>  (30) 
189

$$$$
ETAM-pdb2b43-A-LYS-146:MSM-pdb2b43-A-MET-150
     RDKit          3D

 20 18  0  0  0  0  0  0  0  0999 V2000
    1.2452    0.8878    0.0000 C   0  0  0  0  0  0  0  0  0  0  0  0
    1.3880    1.2403    0.9186 H   0  0  0  0  0  0  0  0  0  0  0  0
    1.1067    1.6334   -0.6413 H   0  0  0  0  0  0  0  0  0  0  0  0
    2.1409    0.3427   -0.2981 H   0  0  0  0  0  0  0  0  0  0  0  0
    0.0000    0.0000    0.0000 C   0  0  0  0  0  0  0  0  0  0  0  0
   -0.0018   -0.5619   -0.8165 H   0  0  0  0  0  0  0  0  0  0  0  0
   -0.0026   -0.5620    0.8165 H   0  0  0  0  0  0  0  0  0  0  0  0
   -1.2452    0.8653   -0.0000 N   0  0  0  0  0  4  0  0  0  0  0  0
   -1.4153    1.1767   -0.9300 H   0  0  0  0  0  0  0  0  0  0  0  0
   -2.0104    0.3201    0.3272 H   0  0  0  0  0  0  0  0  0  0  0  0
   -1.0921    1.6425    0.6027 H   0  0  0  0  0  0  0  0  0  0  0  0
    0.9499   -0.7951    3.5336 C   0  0  0  0  0  0  0  0  0  0  0  0
    1.3428    0.1242    3.2319 H   0  0  0  0  0  0  0  0  0  0  0  0
    1.3574   -1.4613    2.8403 H   0  0  0  0  0  0  0  0  0  0  0  0
    1.3652   -1.0325    4.5131 H   0  0  0  0  0  0  0  0  0  0  0  0
   -0.8522   -0.7809    3.4074 S   0  0  0  0  0  0  0  0  0  0  0  0
   -1.2024   -2.5417    3.3428 C   0  0  0  0  0  0  0  0  0  0  0  0
   -1.6932   -2.8144    4.1707 H   0  0  0  0  0  0  0  0  0  0  0  0
   -1.7663   -2.7403    2.5405 H   0  0  0  0  0  0  0  0  0  0  0  0
   -0.3434   -3.0502    3.2807 H   0  0  0  0  0  0  0  0  0  0  0  0
  1  5  1  0
  5  8  1  0
  1  2  1  0
  1  3  1  0
  1  4  1  0
  5  6  1  0
  5  7  1  0
  8  9  1  0
  8 10  1  0
  8 11  1  0
 12 16  1  0
 16 17  1  0
 12 13  1  0
 12 14  1  0
 12 15  1  0
 17 18  1  0
 17 19  1  0
 17 20  1  0
M  CHG  1   8   1
M  END
>  <PDB_ID>  (31) 
pdb2b43

>  <RESIDUE_NAME>  (31) 
LYS   MET

>  <FRAG_NAME>  (31) 
ETAM   MSM

>  <FRAG_ATOM_NUM>  (31) 
fragi: 11  fragj: 9

>  <atom.prop.CHAIN_ID>  (31) 
A A A A A A A A A A A Z Z Z Z Z Z Z Z Z

>  <atom.prop.IS_HEAVY_ATOM>  (31) 
1 0 0 0 1 0 0 1 0 0 0 1 0 0 0 1 1 0 0 0

>  <DIFUSE_FUNC_ATOM>  (31) 
n/a

>  <FINAL_SINGLE_POINT_ENERGY>  (31) 
0

>  <NONCOV_INTER_ENERGY_QM>  (31) 
0

>  <FF_Energy>  (31) 
-3.91

>  <QM_Energy>  (31) 
-10.22

>  <source>  (31) 
ETAM_MSM

>  <Index>  (31) 
210

$$$$
ETAM-pdb2b43-A-LYS-127:MSM-pdb2b43-A-MET-192
     RDKit          3D

 20 18  0  0  0  0  0  0  0  0999 V2000
    1.2430    0.8414    0.0000 C   0  0  0  0  0  0  0  0  0  0  0  0
    1.0167    1.7532    0.3160 H   0  0  0  0  0  0  0  0  0  0  0  0
    1.6176    0.8660   -0.9171 H   0  0  0  0  0  0  0  0  0  0  0  0
    1.9825    0.4076    0.6731 H   0  0  0  0  0  0  0  0  0  0  0  0
    0.0000    0.0000    0.0000 C   0  0  0  0  0  0  0  0  0  0  0  0
    0.0004   -0.5943   -0.8164 H   0  0  0  0  0  0  0  0  0  0  0  0
    0.0006   -0.5948    0.8165 H   0  0  0  0  0  0  0  0  0  0  0  0
   -1.2430    0.8129   -0.0000 N   0  0  0  0  0  4  0  0  0  0  0  0
   -1.5725    0.9179    0.9381 H   0  0  0  0  0  0  0  0  0  0  0  0
   -1.0516    1.7139   -0.3894 H   0  0  0  0  0  0  0  0  0  0  0  0
   -1.9413    0.3538   -0.5493 H   0  0  0  0  0  0  0  0  0  0  0  0
   -2.1020   -2.4578   -4.2935 C   0  0  0  0  0  0  0  0  0  0  0  0
   -3.0592   -2.1648   -4.4336 H   0  0  0  0  0  0  0  0  0  0  0  0
   -2.0992   -3.4643   -4.1998 H   0  0  0  0  0  0  0  0  0  0  0  0
   -1.5226   -2.1877   -5.1764 H   0  0  0  0  0  0  0  0  0  0  0  0
   -1.4013   -1.6715   -2.8006 S   0  0  0  0  0  0  0  0  0  0  0  0
   -1.6524   -2.8516   -1.4491 C   0  0  0  0  0  0  0  0  0  0  0  0
   -0.9062   -3.5144   -1.4526 H   0  0  0  0  0  0  0  0  0  0  0  0
   -1.6622   -2.3568   -0.5823 H   0  0  0  0  0  0  0  0  0  0  0  0
   -2.5228   -3.3194   -1.5832 H   0  0  0  0  0  0  0  0  0  0  0  0
  1  5  1  0
  5  8  1  0
  1  2  1  0
  1  3  1  0
  1  4  1  0
  5  6  1  0
  5  7  1  0
  8  9  1  0
  8 10  1  0
  8 11  1  0
 12 16  1  0
 16 17  1  0
 12 13  1  0
 12 14  1  0
 12 15  1  0
 17 18  1  0
 17 19  1  0
 17 20  1  0
M  CHG  1   8   1
M  END
>  <PDB_ID>  (32) 
pdb2b43

>  <RESIDUE_NAME>  (32) 
LYS   MET

>  <FRAG_NAME>  (32) 
ETAM   MSM

>  <FRAG_ATOM_NUM>  (32) 
fragi: 11  fragj: 9

>  <atom.prop.CHAIN_ID>  (32) 
A A A A A A A A A A A Z Z Z Z Z Z Z Z Z

>  <atom.prop.IS_HEAVY_ATOM>  (32) 
1 0 0 0 1 0 0 1 0 0 0 1 0 0 0 1 1 0 0 0

>  <DIFUSE_FUNC_ATOM>  (32) 
n/a

>  <FINAL_SINGLE_POINT_ENERGY>  (32) 
0

>  <NONCOV_INTER_ENERGY_QM>  (32) 
0

>  <FF_Energy>  (32) 
-3.2

>  <QM_Energy>  (32) 
-10.21

>  <source>  (32) 
ETAM_MSM

>  <Index>  (32) 
211

$$$$
ETAM-pdb2b43-C-LYS-127:MSM-pdb2b43-C-MET-192
     RDKit          3D

 20 18  0  0  0  0  0  0  0  0999 V2000
    1.2406    0.8571    0.0000 C   0  0  0  0  0  0  0  0  0  0  0  0
    1.0324    1.7227    0.4393 H   0  0  0  0  0  0  0  0  0  0  0  0
    1.5300    1.0013   -0.9386 H   0  0  0  0  0  0  0  0  0  0  0  0
    2.0435    0.3645    0.5485 H   0  0  0  0  0  0  0  0  0  0  0  0
    0.0000    0.0000    0.0000 C   0  0  0  0  0  0  0  0  0  0  0  0
    0.0070   -0.5890   -0.8162 H   0  0  0  0  0  0  0  0  0  0  0  0
    0.0066   -0.5891    0.8166 H   0  0  0  0  0  0  0  0  0  0  0  0
   -1.2406    0.8135   -0.0000 N   0  0  0  0  0  4  0  0  0  0  0  0
   -2.0053    0.2574   -0.3279 H   0  0  0  0  0  0  0  0  0  0  0  0
   -1.4334    1.1289    0.9298 H   0  0  0  0  0  0  0  0  0  0  0  0
   -1.1216    1.6042   -0.6020 H   0  0  0  0  0  0  0  0  0  0  0  0
   -2.6185   -1.1418   -4.7053 C   0  0  0  0  0  0  0  0  0  0  0  0
   -3.4940   -0.6793   -4.5916 H   0  0  0  0  0  0  0  0  0  0  0  0
   -2.7673   -2.1113   -4.8849 H   0  0  0  0  0  0  0  0  0  0  0  0
   -2.0782   -0.6956   -5.5403 H   0  0  0  0  0  0  0  0  0  0  0  0
   -1.5831   -0.9188   -3.2291 S   0  0  0  0  0  0  0  0  0  0  0  0
   -2.2706   -2.1834   -2.1169 C   0  0  0  0  0  0  0  0  0  0  0  0
   -2.8499   -2.7968   -2.6466 H   0  0  0  0  0  0  0  0  0  0  0  0
   -1.5195   -2.6923   -1.7055 H   0  0  0  0  0  0  0  0  0  0  0  0
   -2.8070   -1.7325   -1.4089 H   0  0  0  0  0  0  0  0  0  0  0  0
  1  5  1  0
  5  8  1  0
  1  2  1  0
  1  3  1  0
  1  4  1  0
  5  6  1  0
  5  7  1  0
  8  9  1  0
  8 10  1  0
  8 11  1  0
 12 16  1  0
 16 17  1  0
 12 13  1  0
 12 14  1  0
 12 15  1  0
 17 18  1  0
 17 19  1  0
 17 20  1  0
M  CHG  1   8   1
M  END
>  <PDB_ID>  (33) 
pdb2b43

>  <RESIDUE_NAME>  (33) 
LYS   MET

>  <FRAG_NAME>  (33) 
ETAM   MSM

>  <FRAG_ATOM_NUM>  (33) 
fragi: 11  fragj: 9

>  <atom.prop.CHAIN_ID>  (33) 
A A A A A A A A A A A Z Z Z Z Z Z Z Z Z

>  <atom.prop.IS_HEAVY_ATOM>  (33) 
1 0 0 0 1 0 0 1 0 0 0 1 0 0 0 1 1 0 0 0

>  <DIFUSE_FUNC_ATOM>  (33) 
n/a

>  <FINAL_SINGLE_POINT_ENERGY>  (33) 
0

>  <NONCOV_INTER_ENERGY_QM>  (33) 
0

>  <FF_Energy>  (33) 
-4.13

>  <QM_Energy>  (33) 
-9.72

>  <source>  (33) 
ETAM_MSM

>  <Index>  (33) 
216

$$$$
ETAM-pdb2b43-D-LYS-127:MSM-pdb2b43-D-MET-192
     RDKit          3D

 20 18  0  0  0  0  0  0  0  0999 V2000
    1.2544    0.8521    0.0000 C   0  0  0  0  0  0  0  0  0  0  0  0
    1.2004    1.4975    0.7515 H   0  0  0  0  0  0  0  0  0  0  0  0
    1.3153    1.3266   -0.8689 H   0  0  0  0  0  0  0  0  0  0  0  0
    2.1395    0.2293    0.1292 H   0  0  0  0  0  0  0  0  0  0  0  0
    0.0000    0.0000    0.0000 C   0  0  0  0  0  0  0  0  0  0  0  0
    0.0058   -0.5920   -0.8164 H   0  0  0  0  0  0  0  0  0  0  0  0
    0.0051   -0.5922    0.8165 H   0  0  0  0  0  0  0  0  0  0  0  0
   -1.2544    0.8100   -0.0000 N   0  0  0  0  0  4  0  0  0  0  0  0
   -1.5448    0.9674    0.9427 H   0  0  0  0  0  0  0  0  0  0  0  0
   -1.0814    1.6850   -0.4496 H   0  0  0  0  0  0  0  0  0  0  0  0
   -1.9669    0.3130   -0.4935 H   0  0  0  0  0  0  0  0  0  0  0  0
   -3.4598    0.3529   -4.0216 C   0  0  0  0  0  0  0  0  0  0  0  0
   -4.2208    0.7813   -3.5205 H   0  0  0  0  0  0  0  0  0  0  0  0
   -3.8258   -0.4153   -4.5598 H   0  0  0  0  0  0  0  0  0  0  0  0
   -3.0348    1.0878   -4.7052 H   0  0  0  0  0  0  0  0  0  0  0  0
   -2.1728   -0.2124   -2.8813 S   0  0  0  0  0  0  0  0  0  0  0  0
   -2.9361   -1.7210   -2.2021 C   0  0  0  0  0  0  0  0  0  0  0  0
   -2.6362   -2.5030   -2.7412 H   0  0  0  0  0  0  0  0  0  0  0  0
   -2.6481   -1.8265   -1.2539 H   0  0  0  0  0  0  0  0  0  0  0  0
   -3.9261   -1.6291   -2.2518 H   0  0  0  0  0  0  0  0  0  0  0  0
  1  5  1  0
  5  8  1  0
  1  2  1  0
  1  3  1  0
  1  4  1  0
  5  6  1  0
  5  7  1  0
  8  9  1  0
  8 10  1  0
  8 11  1  0
 12 16  1  0
 16 17  1  0
 12 13  1  0
 12 14  1  0
 12 15  1  0
 17 18  1  0
 17 19  1  0
 17 20  1  0
M  CHG  1   8   1
M  END
>  <PDB_ID>  (34) 
pdb2b43

>  <RESIDUE_NAME>  (34) 
LYS   MET

>  <FRAG_NAME>  (34) 
ETAM   MSM

>  <FRAG_ATOM_NUM>  (34) 
fragi: 11  fragj: 9

>  <atom.prop.CHAIN_ID>  (34) 
A A A A A A A A A A A Z Z Z Z Z Z Z Z Z

>  <atom.prop.IS_HEAVY_ATOM>  (34) 
1 0 0 0 1 0 0 1 0 0 0 1 0 0 0 1 1 0 0 0

>  <DIFUSE_FUNC_ATOM>  (34) 
n/a

>  <FINAL_SINGLE_POINT_ENERGY>  (34) 
0

>  <NONCOV_INTER_ENERGY_QM>  (34) 
0

>  <FF_Energy>  (34) 
-4.68

>  <QM_Energy>  (34) 
-14.08

>  <source>  (34) 
ETAM_MSM

>  <Index>  (34) 
218

$$$$
ETAM-pdb2b60-A-LYS-55:MSM-pdb2b60-A-MET-46
     RDKit          3D

 20 18  0  0  0  0  0  0  0  0999 V2000
    1.2350    0.8610   -0.0000 C   0  0  0  0  0  0  0  0  0  0  0  0
    1.0224    1.7204    0.4320 H   0  0  0  0  0  0  0  0  0  0  0  0
    1.5383    0.9801   -0.9289 H   0  0  0  0  0  0  0  0  0  0  0  0
    2.0034    0.3428    0.5737 H   0  0  0  0  0  0  0  0  0  0  0  0
    0.0000    0.0000    0.0000 C   0  0  0  0  0  0  0  0  0  0  0  0
    0.0153   -0.5940   -0.8159 H   0  0  0  0  0  0  0  0  0  0  0  0
    0.0150   -0.5943    0.8159 H   0  0  0  0  0  0  0  0  0  0  0  0
   -1.2350    0.7946    0.0000 N   0  0  0  0  0  4  0  0  0  0  0  0
   -1.0300    1.7449    0.2472 H   0  0  0  0  0  0  0  0  0  0  0  0
   -1.6522    0.7773   -0.9113 H   0  0  0  0  0  0  0  0  0  0  0  0
   -1.8840    0.4166    0.6645 H   0  0  0  0  0  0  0  0  0  0  0  0
    1.6803    0.7036    3.8884 C   0  0  0  0  0  0  0  0  0  0  0  0
    1.9081    1.5957    3.3346 H   0  0  0  0  0  0  0  0  0  0  0  0
    2.4319    0.0552    3.4768 H   0  0  0  0  0  0  0  0  0  0  0  0
    1.9489    0.8916    4.9279 H   0  0  0  0  0  0  0  0  0  0  0  0
    0.1076    0.1353    3.5295 S   0  0  0  0  0  0  0  0  0  0  0  0
    0.3440   -1.6118    3.8588 C   0  0  0  0  0  0  0  0  0  0  0  0
    1.0239   -1.9825    3.2244 H   0  0  0  0  0  0  0  0  0  0  0  0
    0.6642   -1.7348    4.7988 H   0  0  0  0  0  0  0  0  0  0  0  0
   -0.5238   -2.0953    3.7375 H   0  0  0  0  0  0  0  0  0  0  0  0
  1  5  1  0
  5  8  1  0
  1  2  1  0
  1  3  1  0
  1  4  1  0
  5  6  1  0
  5  7  1  0
  8  9  1  0
  8 10  1  0
  8 11  1  0
 12 16  1  0
 16 17  1  0
 12 13  1  0
 12 14  1  0
 12 15  1  0
 17 18  1  0
 17 19  1  0
 17 20  1  0
M  CHG  1   8   1
M  END
>  <PDB_ID>  (35) 
pdb2b60

>  <RESIDUE_NAME>  (35) 
LYS   MET

>  <FRAG_NAME>  (35) 
ETAM   MSM

>  <FRAG_ATOM_NUM>  (35) 
fragi: 11  fragj: 9

>  <atom.prop.CHAIN_ID>  (35) 
A A A A A A A A A A A Z Z Z Z Z Z Z Z Z

>  <atom.prop.IS_HEAVY_ATOM>  (35) 
1 0 0 0 1 0 0 1 0 0 0 1 0 0 0 1 1 0 0 0

>  <DIFUSE_FUNC_ATOM>  (35) 
n/a

>  <FINAL_SINGLE_POINT_ENERGY>  (35) 
0

>  <NONCOV_INTER_ENERGY_QM>  (35) 
0

>  <FF_Energy>  (35) 
-4.74

>  <QM_Energy>  (35) 
-10.3

>  <source>  (35) 
ETAM_MSM

>  <Index>  (35) 
230

$$$$
ETAM-pdb2a8c-D-LYS-173:MSM-pdb2a8c-F-MET-1
     RDKit          3D

 20 18  0  0  0  0  0  0  0  0999 V2000
    1.2548    0.8739    0.0000 C   0  0  0  0  0  0  0  0  0  0  0  0
    2.0514    0.2843    0.0913 H   0  0  0  0  0  0  0  0  0  0  0  0
    1.2024    1.5033    0.7697 H   0  0  0  0  0  0  0  0  0  0  0  0
    1.3543    1.4534   -0.9178 H   0  0  0  0  0  0  0  0  0  0  0  0
    0.0000    0.0000    0.0000 C   0  0  0  0  0  0  0  0  0  0  0  0
    0.0174   -0.5873   -0.8161 H   0  0  0  0  0  0  0  0  0  0  0  0
    0.0176   -0.5873    0.8161 H   0  0  0  0  0  0  0  0  0  0  0  0
   -1.2548    0.8014   -0.0000 N   0  0  0  0  0  4  0  0  0  0  0  0
   -1.1021    1.6555   -0.4964 H   0  0  0  0  0  0  0  0  0  0  0  0
   -1.9811    0.2796   -0.4457 H   0  0  0  0  0  0  0  0  0  0  0  0
   -1.5183    1.0045    0.9419 H   0  0  0  0  0  0  0  0  0  0  0  0
   -3.6589   -2.4292    0.4432 C   0  0  0  0  0  0  0  0  0  0  0  0
   -4.0374   -3.1835    1.0247 H   0  0  0  0  0  0  0  0  0  0  0  0
   -2.8082   -2.8084    0.0171 H   0  0  0  0  0  0  0  0  0  0  0  0
   -4.3748   -2.2181   -0.3512 H   0  0  0  0  0  0  0  0  0  0  0  0
   -3.2856   -0.9759    1.4406 S   0  0  0  0  0  0  0  0  0  0  0  0
   -4.7136   -0.9213    2.4947 C   0  0  0  0  0  0  0  0  0  0  0  0
   -4.8129   -1.7928    2.9835 H   0  0  0  0  0  0  0  0  0  0  0  0
   -4.6184   -0.1802    3.1646 H   0  0  0  0  0  0  0  0  0  0  0  0
   -5.5384   -0.7596    1.9463 H   0  0  0  0  0  0  0  0  0  0  0  0
  1  5  1  0
  5  8  1  0
  1  2  1  0
  1  3  1  0
  1  4  1  0
  5  6  1  0
  5  7  1  0
  8  9  1  0
  8 10  1  0
  8 11  1  0
 12 16  1  0
 16 17  1  0
 12 13  1  0
 12 14  1  0
 12 15  1  0
 17 18  1  0
 17 19  1  0
 17 20  1  0
M  CHG  1   8   1
M  END
>  <PDB_ID>  (36) 
pdb2a8c

>  <RESIDUE_NAME>  (36) 
LYS   MET

>  <FRAG_NAME>  (36) 
ETAM   MSM

>  <FRAG_ATOM_NUM>  (36) 
fragi: 11  fragj: 9

>  <atom.prop.CHAIN_ID>  (36) 
A A A A A A A A A A A Z Z Z Z Z Z Z Z Z

>  <atom.prop.IS_HEAVY_ATOM>  (36) 
1 0 0 0 1 0 0 1 0 0 0 1 0 0 0 1 1 0 0 0

>  <DIFUSE_FUNC_ATOM>  (36) 
n/a

>  <FINAL_SINGLE_POINT_ENERGY>  (36) 
0

>  <NONCOV_INTER_ENERGY_QM>  (36) 
0

>  <FF_Energy>  (36) 
-4.36

>  <QM_Energy>  (36) 
-13.25

>  <source>  (36) 
ETAM_MSM

>  <Index>  (36) 
233

$$$$
ETAM-pdb2b5v-A-LYS-157:MSM-pdb2b5v-A-MET-106
     RDKit          3D

 20 18  0  0  0  0  0  0  0  0999 V2000
    1.2755    0.8744    0.0000 C   0  0  0  0  0  0  0  0  0  0  0  0
    1.2287    1.4866    0.7690 H   0  0  0  0  0  0  0  0  0  0  0  0
    1.3165    1.3577   -0.8559 H   0  0  0  0  0  0  0  0  0  0  0  0
    2.1582    0.2426    0.0986 H   0  0  0  0  0  0  0  0  0  0  0  0
    0.0000    0.0000    0.0000 C   0  0  0  0  0  0  0  0  0  0  0  0
    0.0159   -0.5853   -0.8159 H   0  0  0  0  0  0  0  0  0  0  0  0
    0.0155   -0.5860    0.8159 H   0  0  0  0  0  0  0  0  0  0  0  0
   -1.2755    0.8054   -0.0000 N   0  0  0  0  0  4  0  0  0  0  0  0
   -1.4108    1.1924    0.9081 H   0  0  0  0  0  0  0  0  0  0  0  0
   -1.1953    1.5343   -0.6747 H   0  0  0  0  0  0  0  0  0  0  0  0
   -2.0347    0.2045   -0.2327 H   0  0  0  0  0  0  0  0  0  0  0  0
   -3.8224    0.8900    3.8198 C   0  0  0  0  0  0  0  0  0  0  0  0
   -3.2461    1.7310    3.9337 H   0  0  0  0  0  0  0  0  0  0  0  0
   -3.9043    0.4847    4.7583 H   0  0  0  0  0  0  0  0  0  0  0  0
   -4.8165    1.2072    3.5050 H   0  0  0  0  0  0  0  0  0  0  0  0
   -3.0600   -0.2690    2.6763 S   0  0  0  0  0  0  0  0  0  0  0  0
   -4.0657   -1.6846    3.0770 C   0  0  0  0  0  0  0  0  0  0  0  0
   -5.0019   -1.5416    2.7477 H   0  0  0  0  0  0  0  0  0  0  0  0
   -3.6871   -2.5045    2.6425 H   0  0  0  0  0  0  0  0  0  0  0  0
   -4.0843   -1.8185    4.0703 H   0  0  0  0  0  0  0  0  0  0  0  0
  1  5  1  0
  5  8  1  0
  1  2  1  0
  1  3  1  0
  1  4  1  0
  5  6  1  0
  5  7  1  0
  8  9  1  0
  8 10  1  0
  8 11  1  0
 12 16  1  0
 16 17  1  0
 12 13  1  0
 12 14  1  0
 12 15  1  0
 17 18  1  0
 17 19  1  0
 17 20  1  0
M  CHG  1   8   1
M  END
>  <PDB_ID>  (37) 
pdb2b5v

>  <RESIDUE_NAME>  (37) 
LYS   MET

>  <FRAG_NAME>  (37) 
ETAM   MSM

>  <FRAG_ATOM_NUM>  (37) 
fragi: 11  fragj: 9

>  <atom.prop.CHAIN_ID>  (37) 
A A A A A A A A A A A Z Z Z Z Z Z Z Z Z

>  <atom.prop.IS_HEAVY_ATOM>  (37) 
1 0 0 0 1 0 0 1 0 0 0 1 0 0 0 1 1 0 0 0

>  <DIFUSE_FUNC_ATOM>  (37) 
n/a

>  <FINAL_SINGLE_POINT_ENERGY>  (37) 
0

>  <NONCOV_INTER_ENERGY_QM>  (37) 
0

>  <FF_Energy>  (37) 
-5.63

>  <QM_Energy>  (37) 
-12.77

>  <source>  (37) 
ETAM_MSM

>  <Index>  (37) 
234

$$$$
ETAM-pdb2b7n-A-LYS-88:MSM-pdb2b7n-A-MET-85
     RDKit          3D

 20 18  0  0  0  0  0  0  0  0999 V2000
    1.2341    0.8699    0.0000 C   0  0  0  0  0  0  0  0  0  0  0  0
    1.1579    1.5406    0.7406 H   0  0  0  0  0  0  0  0  0  0  0  0
    1.2914    1.3516   -0.8769 H   0  0  0  0  0  0  0  0  0  0  0  0
    2.1554    0.3051    0.1427 H   0  0  0  0  0  0  0  0  0  0  0  0
    0.0000    0.0000    0.0000 C   0  0  0  0  0  0  0  0  0  0  0  0
    0.0048   -0.5791   -0.8161 H   0  0  0  0  0  0  0  0  0  0  0  0
    0.0042   -0.5791    0.8166 H   0  0  0  0  0  0  0  0  0  0  0  0
   -1.2341    0.8315    0.0000 N   0  0  0  0  0  4  0  0  0  0  0  0
   -0.9840    1.7968    0.0682 H   0  0  0  0  0  0  0  0  0  0  0  0
   -1.7392    0.6758   -0.8482 H   0  0  0  0  0  0  0  0  0  0  0  0
   -1.8051    0.5777    0.7808 H   0  0  0  0  0  0  0  0  0  0  0  0
   -0.1397   -1.0680   -5.3262 C   0  0  0  0  0  0  0  0  0  0  0  0
   -0.7588   -1.2884   -6.1137 H   0  0  0  0  0  0  0  0  0  0  0  0
    0.7522   -1.5262   -5.5436 H   0  0  0  0  0  0  0  0  0  0  0  0
    0.0211    0.0099   -5.3056 H   0  0  0  0  0  0  0  0  0  0  0  0
   -0.8255   -1.7146   -3.7766 S   0  0  0  0  0  0  0  0  0  0  0  0
    0.5306   -1.7352   -2.8067 C   0  0  0  0  0  0  0  0  0  0  0  0
    1.4028   -1.6848   -3.3406 H   0  0  0  0  0  0  0  0  0  0  0  0
    0.5605   -0.9532   -2.1477 H   0  0  0  0  0  0  0  0  0  0  0  0
    0.5996   -2.5828   -2.2377 H   0  0  0  0  0  0  0  0  0  0  0  0
  1  5  1  0
  5  8  1  0
  1  2  1  0
  1  3  1  0
  1  4  1  0
  5  6  1  0
  5  7  1  0
  8  9  1  0
  8 10  1  0
  8 11  1  0
 12 16  1  0
 16 17  1  0
 12 13  1  0
 12 14  1  0
 12 15  1  0
 17 18  1  0
 17 19  1  0
 17 20  1  0
M  CHG  1   8   1
M  END
>  <PDB_ID>  (38) 
pdb2b7n

>  <RESIDUE_NAME>  (38) 
LYS   MET

>  <FRAG_NAME>  (38) 
ETAM   MSM

>  <FRAG_ATOM_NUM>  (38) 
fragi: 11  fragj: 9

>  <atom.prop.CHAIN_ID>  (38) 
A A A A A A A A A A A Z Z Z Z Z Z Z Z Z

>  <atom.prop.IS_HEAVY_ATOM>  (38) 
1 0 0 0 1 0 0 1 0 0 0 1 0 0 0 1 1 0 0 0

>  <DIFUSE_FUNC_ATOM>  (38) 
n/a

>  <FINAL_SINGLE_POINT_ENERGY>  (38) 
0

>  <NONCOV_INTER_ENERGY_QM>  (38) 
0

>  <FF_Energy>  (38) 
33.23

>  <QM_Energy>  (38) 
0.28

>  <source>  (38) 
ETAM_MSM

>  <Index>  (38) 
235

$$$$
ETAM-pdb2a8c-F-LYS-173:MSM-pdb2a8c-D-MET-1
     RDKit          3D

 20 18  0  0  0  0  0  0  0  0999 V2000
    1.2393    0.8762    0.0000 C   0  0  0  0  0  0  0  0  0  0  0  0
    2.0399    0.2967    0.1061 H   0  0  0  0  0  0  0  0  0  0  0  0
    1.1745    1.5199    0.7538 H   0  0  0  0  0  0  0  0  0  0  0  0
    1.3301    1.4334   -0.9323 H   0  0  0  0  0  0  0  0  0  0  0  0
    0.0000    0.0000    0.0000 C   0  0  0  0  0  0  0  0  0  0  0  0
    0.0042   -0.5743   -0.8162 H   0  0  0  0  0  0  0  0  0  0  0  0
    0.0044   -0.5750    0.8161 H   0  0  0  0  0  0  0  0  0  0  0  0
   -1.2393    0.8380   -0.0000 N   0  0  0  0  0  4  0  0  0  0  0  0
   -1.9796    0.3274   -0.4333 H   0  0  0  0  0  0  0  0  0  0  0  0
   -1.4865    1.0570    0.9425 H   0  0  0  0  0  0  0  0  0  0  0  0
   -1.0661    1.6795   -0.5085 H   0  0  0  0  0  0  0  0  0  0  0  0
   -2.9157   -1.4699    0.1861 C   0  0  0  0  0  0  0  0  0  0  0  0
   -2.2227   -1.6190    0.9147 H   0  0  0  0  0  0  0  0  0  0  0  0
   -2.4041   -1.2392   -0.6625 H   0  0  0  0  0  0  0  0  0  0  0  0
   -3.4791   -2.3898    0.0301 H   0  0  0  0  0  0  0  0  0  0  0  0
   -4.0274   -0.1310    0.6373 S   0  0  0  0  0  0  0  0  0  0  0  0
   -3.8891   -0.1625    2.4390 C   0  0  0  0  0  0  0  0  0  0  0  0
   -2.9342   -0.3057    2.6923 H   0  0  0  0  0  0  0  0  0  0  0  0
   -4.2090    0.7082    2.8082 H   0  0  0  0  0  0  0  0  0  0  0  0
   -4.4488   -0.9075    2.7975 H   0  0  0  0  0  0  0  0  0  0  0  0
  1  5  1  0
  5  8  1  0
  1  2  1  0
  1  3  1  0
  1  4  1  0
  5  6  1  0
  5  7  1  0
  8  9  1  0
  8 10  1  0
  8 11  1  0
 12 16  1  0
 16 17  1  0
 12 13  1  0
 12 14  1  0
 12 15  1  0
 17 18  1  0
 17 19  1  0
 17 20  1  0
M  CHG  1   8   1
M  END
>  <PDB_ID>  (39) 
pdb2a8c

>  <RESIDUE_NAME>  (39) 
LYS   MET

>  <FRAG_NAME>  (39) 
ETAM   MSM

>  <FRAG_ATOM_NUM>  (39) 
fragi: 11  fragj: 9

>  <atom.prop.CHAIN_ID>  (39) 
A A A A A A A A A A A Z Z Z Z Z Z Z Z Z

>  <atom.prop.IS_HEAVY_ATOM>  (39) 
1 0 0 0 1 0 0 1 0 0 0 1 0 0 0 1 1 0 0 0

>  <DIFUSE_FUNC_ATOM>  (39) 
n/a

>  <FINAL_SINGLE_POINT_ENERGY>  (39) 
0

>  <NONCOV_INTER_ENERGY_QM>  (39) 
0

>  <FF_Energy>  (39) 
3.69

>  <QM_Energy>  (39) 
-4.54

>  <source>  (39) 
ETAM_MSM

>  <Index>  (39) 
244

$$$$
ETAM-pdb1b0z-A-LYS-436:MSM-pdb1b0z-A-MET-440
     RDKit          3D

 20 18  0  0  0  0  0  0  0  0999 V2000
    1.2590    0.8572   -0.0000 C   0  0  0  0  0  0  0  0  0  0  0  0
    1.9956    0.3297    0.4212 H   0  0  0  0  0  0  0  0  0  0  0  0
    1.0793    1.6757    0.5437 H   0  0  0  0  0  0  0  0  0  0  0  0
    1.5567    1.1509   -1.0066 H   0  0  0  0  0  0  0  0  0  0  0  0
    0.0000    0.0000    0.0000 C   0  0  0  0  0  0  0  0  0  0  0  0
    0.0017   -0.5852   -0.8161 H   0  0  0  0  0  0  0  0  0  0  0  0
    0.0014   -0.5858    0.8166 H   0  0  0  0  0  0  0  0  0  0  0  0
   -1.2590    0.8247   -0.0000 N   0  0  0  0  0  4  0  0  0  0  0  0
   -1.6542    0.8116   -0.9148 H   0  0  0  0  0  0  0  0  0  0  0  0
   -1.9008    0.4338    0.6543 H   0  0  0  0  0  0  0  0  0  0  0  0
   -1.0331    1.7601    0.2610 H   0  0  0  0  0  0  0  0  0  0  0  0
   -1.8744    3.2828   -3.8225 C   0  0  0  0  0  0  0  0  0  0  0  0
   -2.8624    3.1872   -3.9131 H   0  0  0  0  0  0  0  0  0  0  0  0
   -1.4152    2.7950   -4.5604 H   0  0  0  0  0  0  0  0  0  0  0  0
   -1.6017    4.3378   -3.8504 H   0  0  0  0  0  0  0  0  0  0  0  0
   -1.3170    2.7605   -2.2587 S   0  0  0  0  0  0  0  0  0  0  0  0
   -2.9172    3.0769   -1.3353 C   0  0  0  0  0  0  0  0  0  0  0  0
   -3.5293    2.3295   -1.5419 H   0  0  0  0  0  0  0  0  0  0  0  0
   -2.6995    3.1118   -0.3721 H   0  0  0  0  0  0  0  0  0  0  0  0
   -3.2763    3.9391   -1.6570 H   0  0  0  0  0  0  0  0  0  0  0  0
  1  5  1  0
  5  8  1  0
  1  2  1  0
  1  3  1  0
  1  4  1  0
  5  6  1  0
  5  7  1  0
  8  9  1  0
  8 10  1  0
  8 11  1  0
 12 16  1  0
 16 17  1  0
 12 13  1  0
 12 14  1  0
 12 15  1  0
 17 18  1  0
 17 19  1  0
 17 20  1  0
M  CHG  1   8   1
M  END
>  <PDB_ID>  (40) 
pdb1b0z

>  <RESIDUE_NAME>  (40) 
LYS   MET

>  <FRAG_NAME>  (40) 
ETAM   MSM

>  <FRAG_ATOM_NUM>  (40) 
fragi: 11  fragj: 9

>  <atom.prop.CHAIN_ID>  (40) 
A A A A A A A A A A A Z Z Z Z Z Z Z Z Z

>  <atom.prop.IS_HEAVY_ATOM>  (40) 
1 0 0 0 1 0 0 1 0 0 0 1 0 0 0 1 1 0 0 0

>  <DIFUSE_FUNC_ATOM>  (40) 
n/a

>  <FINAL_SINGLE_POINT_ENERGY>  (40) 
0

>  <NONCOV_INTER_ENERGY_QM>  (40) 
0

>  <FF_Energy>  (40) 
-1.03

>  <QM_Energy>  (40) 
-10.96

>  <source>  (40) 
ETAM_MSM

>  <Index>  (40) 
268

$$$$
ETAM-pdb1b0z-A-LYS-37:MSM-pdb1b0z-A-MET-32
     RDKit          3D

 20 18  0  0  0  0  0  0  0  0999 V2000
    1.2569    0.8867    0.0000 C   0  0  0  0  0  0  0  0  0  0  0  0
    1.3288    1.3287    0.8941 H   0  0  0  0  0  0  0  0  0  0  0  0
    1.1483    1.5843   -0.7087 H   0  0  0  0  0  0  0  0  0  0  0  0
    2.1802    0.3396   -0.1906 H   0  0  0  0  0  0  0  0  0  0  0  0
    0.0000    0.0000    0.0000 C   0  0  0  0  0  0  0  0  0  0  0  0
    0.0324   -0.5910   -0.8161 H   0  0  0  0  0  0  0  0  0  0  0  0
    0.0326   -0.5912    0.8165 H   0  0  0  0  0  0  0  0  0  0  0  0
   -1.2569    0.7763    0.0000 N   0  0  0  0  0  4  0  0  0  0  0  0
   -1.2127    1.4899   -0.7014 H   0  0  0  0  0  0  0  0  0  0  0  0
   -2.0287    0.1679   -0.1949 H   0  0  0  0  0  0  0  0  0  0  0  0
   -1.3901    1.2024    0.8966 H   0  0  0  0  0  0  0  0  0  0  0  0
    0.6229    3.8945    0.2793 C   0  0  0  0  0  0  0  0  0  0  0  0
    1.0514    2.9643    0.3592 H   0  0  0  0  0  0  0  0  0  0  0  0
    0.0054    3.9779    1.0956 H   0  0  0  0  0  0  0  0  0  0  0  0
    1.4096    4.6441    0.3642 H   0  0  0  0  0  0  0  0  0  0  0  0
   -0.3201    4.0339   -1.2506 S   0  0  0  0  0  0  0  0  0  0  0  0
   -1.9991    3.8639   -0.6826 C   0  0  0  0  0  0  0  0  0  0  0  0
   -2.1109    4.3345    0.1959 H   0  0  0  0  0  0  0  0  0  0  0  0
   -2.6281    4.2663   -1.3521 H   0  0  0  0  0  0  0  0  0  0  0  0
   -2.2228    2.8934   -0.5650 H   0  0  0  0  0  0  0  0  0  0  0  0
  1  5  1  0
  5  8  1  0
  1  2  1  0
  1  3  1  0
  1  4  1  0
  5  6  1  0
  5  7  1  0
  8  9  1  0
  8 10  1  0
  8 11  1  0
 12 16  1  0
 16 17  1  0
 12 13  1  0
 12 14  1  0
 12 15  1  0
 17 18  1  0
 17 19  1  0
 17 20  1  0
M  CHG  1   8   1
M  END
>  <PDB_ID>  (41) 
pdb1b0z

>  <RESIDUE_NAME>  (41) 
LYS   MET

>  <FRAG_NAME>  (41) 
ETAM   MSM

>  <FRAG_ATOM_NUM>  (41) 
fragi: 11  fragj: 9

>  <atom.prop.CHAIN_ID>  (41) 
A A A A A A A A A A A Z Z Z Z Z Z Z Z Z

>  <atom.prop.IS_HEAVY_ATOM>  (41) 
1 0 0 0 1 0 0 1 0 0 0 1 0 0 0 1 1 0 0 0

>  <DIFUSE_FUNC_ATOM>  (41) 
n/a

>  <FINAL_SINGLE_POINT_ENERGY>  (41) 
0

>  <NONCOV_INTER_ENERGY_QM>  (41) 
0

>  <FF_Energy>  (41) 
19.84

>  <QM_Energy>  (41) 
1.39

>  <source>  (41) 
ETAM_MSM

>  <Index>  (41) 
271

$$$$
ETAM-pdb2bjo-A-ALA-2:MSM-pdb2bjo-B-MET-82
     RDKit          3D

 20 18  0  0  0  0  0  0  0  0999 V2000
    1.2506    0.8472    0.0000 C   0  0  0  0  0  0  0  0  0  0  0  0
    1.8181    0.6158    0.7919 H   0  0  0  0  0  0  0  0  0  0  0  0
    1.7734    0.6812   -0.8379 H   0  0  0  0  0  0  0  0  0  0  0  0
    1.0042    1.8173    0.0463 H   0  0  0  0  0  0  0  0  0  0  0  0
    0.0000    0.0000    0.0000 C   0  0  0  0  0  0  0  0  0  0  0  0
    0.0069   -0.5497   -0.8444 H   0  0  0  0  0  0  0  0  0  0  0  0
    0.0507   -0.6661    0.8612 H   0  0  0  0  0  0  0  0  0  0  0  0
   -1.2506    0.8189   -0.0000 N   0  0  0  0  0  4  0  0  0  0  0  0
   -1.7691    0.6200    0.8264 H   0  0  0  0  0  0  0  0  0  0  0  0
   -1.0066    1.7841   -0.0227 H   0  0  0  0  0  0  0  0  0  0  0  0
   -1.7913    0.5867   -0.8036 H   0  0  0  0  0  0  0  0  0  0  0  0
   -0.1401   -0.5402   -4.9861 C   0  0  0  0  0  0  0  0  0  0  0  0
    0.6600   -1.1017   -5.3239 H   0  0  0  0  0  0  0  0  0  0  0  0
   -0.4310    0.0104   -5.8121 H   0  0  0  0  0  0  0  0  0  0  0  0
   -0.9497   -1.2238   -4.7302 H   0  0  0  0  0  0  0  0  0  0  0  0
    0.3779    0.5591   -3.6417 S   0  0  0  0  0  0  0  0  0  0  0  0
    1.0693    1.9273   -4.5774 C   0  0  0  0  0  0  0  0  0  0  0  0
    1.1145    2.7399   -3.9956 H   0  0  0  0  0  0  0  0  0  0  0  0
    1.9892    1.6875   -4.8876 H   0  0  0  0  0  0  0  0  0  0  0  0
    0.4883    2.1167   -5.3698 H   0  0  0  0  0  0  0  0  0  0  0  0
  1  5  1  0
  5  8  1  0
  1  2  1  0
  1  3  1  0
  1  4  1  0
  5  6  1  0
  5  7  1  0
  8  9  1  0
  8 10  1  0
  8 11  1  0
 12 16  1  0
 16 17  1  0
 12 13  1  0
 12 14  1  0
 12 15  1  0
 17 18  1  0
 17 19  1  0
 17 20  1  0
M  CHG  1   8   1
M  END
>  <PDB_ID>  (42) 
pdb2bjo

>  <RESIDUE_NAME>  (42) 
ALA   MET

>  <FRAG_NAME>  (42) 
ETAM   MSM

>  <FRAG_ATOM_NUM>  (42) 
fragi: 11  fragj: 9

>  <atom.prop.CHAIN_ID>  (42) 
A A A A A A A A A A A Z Z Z Z Z Z Z Z Z

>  <atom.prop.IS_HEAVY_ATOM>  (42) 
1 0 0 0 1 0 0 1 0 0 0 1 0 0 0 1 1 0 0 0

>  <DIFUSE_FUNC_ATOM>  (42) 
n/a

>  <FINAL_SINGLE_POINT_ENERGY>  (42) 
0

>  <NONCOV_INTER_ENERGY_QM>  (42) 
0

>  <FF_Energy>  (42) 
-5.02

>  <QM_Energy>  (42) 
-11.42

>  <source>  (42) 
ETAM_MSM

>  <Index>  (42) 
279

$$$$
ETAM-pdb1b1y-A-LYS-293:MSM-pdb1b1y-A-MET-49
     RDKit          3D

 20 18  0  0  0  0  0  0  0  0999 V2000
    1.2323    0.8810    0.0000 C   0  0  0  0  0  0  0  0  0  0  0  0
    1.9737    0.3889    0.4549 H   0  0  0  0  0  0  0  0  0  0  0  0
    1.0239    1.7171    0.5051 H   0  0  0  0  0  0  0  0  0  0  0  0
    1.5462    1.1435   -1.0103 H   0  0  0  0  0  0  0  0  0  0  0  0
    0.0000    0.0000    0.0000 C   0  0  0  0  0  0  0  0  0  0  0  0
    0.0356   -0.5968   -0.8166 H   0  0  0  0  0  0  0  0  0  0  0  0
    0.0353   -0.5972    0.8160 H   0  0  0  0  0  0  0  0  0  0  0  0
   -1.2323    0.7650    0.0000 N   0  0  0  0  0  4  0  0  0  0  0  0
   -1.5294    0.9511   -0.9426 H   0  0  0  0  0  0  0  0  0  0  0  0
   -1.9607    0.2556    0.4697 H   0  0  0  0  0  0  0  0  0  0  0  0
   -1.1000    1.6432    0.4730 H   0  0  0  0  0  0  0  0  0  0  0  0
   -5.8090   -1.6663   -0.2779 C   0  0  0  0  0  0  0  0  0  0  0  0
   -5.7078   -2.4215    0.3877 H   0  0  0  0  0  0  0  0  0  0  0  0
   -5.5172   -2.0153   -1.1821 H   0  0  0  0  0  0  0  0  0  0  0  0
   -6.8566   -1.3699   -0.3280 H   0  0  0  0  0  0  0  0  0  0  0  0
   -4.8184   -0.2507    0.2088 S   0  0  0  0  0  0  0  0  0  0  0  0
   -4.3108    0.1402   -1.4343 C   0  0  0  0  0  0  0  0  0  0  0  0
   -3.9415   -0.6771   -1.8898 H   0  0  0  0  0  0  0  0  0  0  0  0
   -5.0914    0.4799   -1.9698 H   0  0  0  0  0  0  0  0  0  0  0  0
   -3.5985    0.8502   -1.4203 H   0  0  0  0  0  0  0  0  0  0  0  0
  1  5  1  0
  5  8  1  0
  1  2  1  0
  1  3  1  0
  1  4  1  0
  5  6  1  0
  5  7  1  0
  8  9  1  0
  8 10  1  0
  8 11  1  0
 12 16  1  0
 16 17  1  0
 12 13  1  0
 12 14  1  0
 12 15  1  0
 17 18  1  0
 17 19  1  0
 17 20  1  0
M  CHG  1   8   1
M  END
>  <PDB_ID>  (43) 
pdb1b1y

>  <RESIDUE_NAME>  (43) 
LYS   MET

>  <FRAG_NAME>  (43) 
ETAM   MSM

>  <FRAG_ATOM_NUM>  (43) 
fragi: 11  fragj: 9

>  <atom.prop.CHAIN_ID>  (43) 
A A A A A A A A A A A Z Z Z Z Z Z Z Z Z

>  <atom.prop.IS_HEAVY_ATOM>  (43) 
1 0 0 0 1 0 0 1 0 0 0 1 0 0 0 1 1 0 0 0

>  <DIFUSE_FUNC_ATOM>  (43) 
n/a

>  <FINAL_SINGLE_POINT_ENERGY>  (43) 
0

>  <NONCOV_INTER_ENERGY_QM>  (43) 
0

>  <FF_Energy>  (43) 
-2.78

>  <QM_Energy>  (43) 
-8.01

>  <source>  (43) 
ETAM_MSM

>  <Index>  (43) 
284

$$$$
ETAM-pdb1b47-C-LYS-58:MSM-pdb1b47-C-MET-123
     RDKit          3D

 20 18  0  0  0  0  0  0  0  0999 V2000
    1.2359    0.8990   -0.0000 C   0  0  0  0  0  0  0  0  0  0  0  0
    1.2060    1.4695    0.8223 H   0  0  0  0  0  0  0  0  0  0  0  0
    1.1948    1.4846   -0.8107 H   0  0  0  0  0  0  0  0  0  0  0  0
    2.1703    0.3378   -0.0107 H   0  0  0  0  0  0  0  0  0  0  0  0
    0.0000    0.0000    0.0000 C   0  0  0  0  0  0  0  0  0  0  0  0
    0.0011   -0.5558   -0.8161 H   0  0  0  0  0  0  0  0  0  0  0  0
    0.0006   -0.5564    0.8162 H   0  0  0  0  0  0  0  0  0  0  0  0
   -1.2359    0.8703    0.0000 N   0  0  0  0  0  4  0  0  0  0  0  0
   -1.3377    1.2809   -0.9010 H   0  0  0  0  0  0  0  0  0  0  0  0
   -2.0270    0.3031    0.2102 H   0  0  0  0  0  0  0  0  0  0  0  0
   -1.1276    1.5794    0.6906 H   0  0  0  0  0  0  0  0  0  0  0  0
    2.7506    3.7202   -4.6388 C   0  0  0  0  0  0  0  0  0  0  0  0
    3.2905    2.7818   -4.6801 H   0  0  0  0  0  0  0  0  0  0  0  0
    3.4213    4.3035   -5.2583 H   0  0  0  0  0  0  0  0  0  0  0  0
    1.8375    3.5782   -5.2168 H   0  0  0  0  0  0  0  0  0  0  0  0
    2.7450    4.3497   -2.9854 S   0  0  0  0  0  0  0  0  0  0  0  0
    1.5783    3.2357   -2.1875 C   0  0  0  0  0  0  0  0  0  0  0  0
    1.2521    3.6500   -1.3386 H   0  0  0  0  0  0  0  0  0  0  0  0
    0.8045    3.0729   -2.7995 H   0  0  0  0  0  0  0  0  0  0  0  0
    2.0337    2.3688   -1.9838 H   0  0  0  0  0  0  0  0  0  0  0  0
  1  5  1  0
  5  8  1  0
  1  2  1  0
  1  3  1  0
  1  4  1  0
  5  6  1  0
  5  7  1  0
  8  9  1  0
  8 10  1  0
  8 11  1  0
 12 16  1  0
 16 17  1  0
 12 13  1  0
 12 14  1  0
 12 15  1  0
 17 18  1  0
 17 19  1  0
 17 20  1  0
M  CHG  1   8   1
M  END
>  <PDB_ID>  (44) 
pdb1b47

>  <RESIDUE_NAME>  (44) 
LYS   MET

>  <FRAG_NAME>  (44) 
ETAM   MSM

>  <FRAG_ATOM_NUM>  (44) 
fragi: 11  fragj: 9

>  <atom.prop.CHAIN_ID>  (44) 
A A A A A A A A A A A Z Z Z Z Z Z Z Z Z

>  <atom.prop.IS_HEAVY_ATOM>  (44) 
1 0 0 0 1 0 0 1 0 0 0 1 0 0 0 1 1 0 0 0

>  <DIFUSE_FUNC_ATOM>  (44) 
n/a

>  <FINAL_SINGLE_POINT_ENERGY>  (44) 
0

>  <NONCOV_INTER_ENERGY_QM>  (44) 
0

>  <FF_Energy>  (44) 
11.49

>  <QM_Energy>  (44) 
3.83

>  <source>  (44) 
ETAM_MSM

>  <Index>  (44) 
290

$$$$
ETAM-pdb2bmf-A-LYS-430:MSM-pdb2bmf-A-MET-447
     RDKit          3D

 20 18  0  0  0  0  0  0  0  0999 V2000
    1.2807    0.8504   -0.0000 C   0  0  0  0  0  0  0  0  0  0  0  0
    2.0586    0.2433    0.1523 H   0  0  0  0  0  0  0  0  0  0  0  0
    1.2170    1.5100    0.7471 H   0  0  0  0  0  0  0  0  0  0  0  0
    1.4355    1.3908   -0.9338 H   0  0  0  0  0  0  0  0  0  0  0  0
    0.0000    0.0000    0.0000 C   0  0  0  0  0  0  0  0  0  0  0  0
    0.0181   -0.6038   -0.8164 H   0  0  0  0  0  0  0  0  0  0  0  0
    0.0173   -0.6038    0.8164 H   0  0  0  0  0  0  0  0  0  0  0  0
   -1.2807    0.7755   -0.0000 N   0  0  0  0  0  4  0  0  0  0  0  0
   -1.7917    0.5627    0.8308 H   0  0  0  0  0  0  0  0  0  0  0  0
   -1.0721    1.7514   -0.0285 H   0  0  0  0  0  0  0  0  0  0  0  0
   -1.8172    0.5216   -0.8021 H   0  0  0  0  0  0  0  0  0  0  0  0
   -0.4460    5.3668    0.8436 C   0  0  0  0  0  0  0  0  0  0  0  0
   -0.1558    5.8739   -0.0008 H   0  0  0  0  0  0  0  0  0  0  0  0
    0.3547    5.4221    1.4831 H   0  0  0  0  0  0  0  0  0  0  0  0
   -1.2870    5.8948    1.2929 H   0  0  0  0  0  0  0  0  0  0  0  0
   -0.8269    3.6441    0.4516 S   0  0  0  0  0  0  0  0  0  0  0  0
   -2.2488    3.8397   -0.6303 C   0  0  0  0  0  0  0  0  0  0  0  0
   -1.9352    3.9954   -1.5669 H   0  0  0  0  0  0  0  0  0  0  0  0
   -2.8076    3.0112   -0.5989 H   0  0  0  0  0  0  0  0  0  0  0  0
   -2.7935    4.6213   -0.3258 H   0  0  0  0  0  0  0  0  0  0  0  0
  1  5  1  0
  5  8  1  0
  1  2  1  0
  1  3  1  0
  1  4  1  0
  5  6  1  0
  5  7  1  0
  8  9  1  0
  8 10  1  0
  8 11  1  0
 12 16  1  0
 16 17  1  0
 12 13  1  0
 12 14  1  0
 12 15  1  0
 17 18  1  0
 17 19  1  0
 17 20  1  0
M  CHG  1   8   1
M  END
>  <PDB_ID>  (45) 
pdb2bmf

>  <RESIDUE_NAME>  (45) 
LYS   MET

>  <FRAG_NAME>  (45) 
ETAM   MSM

>  <FRAG_ATOM_NUM>  (45) 
fragi: 11  fragj: 9

>  <atom.prop.CHAIN_ID>  (45) 
A A A A A A A A A A A Z Z Z Z Z Z Z Z Z

>  <atom.prop.IS_HEAVY_ATOM>  (45) 
1 0 0 0 1 0 0 1 0 0 0 1 0 0 0 1 1 0 0 0

>  <DIFUSE_FUNC_ATOM>  (45) 
n/a

>  <FINAL_SINGLE_POINT_ENERGY>  (45) 
0

>  <NONCOV_INTER_ENERGY_QM>  (45) 
0

>  <FF_Energy>  (45) 
-1.57

>  <QM_Energy>  (45) 
-7.97

>  <source>  (45) 
ETAM_MSM

>  <Index>  (45) 
294

$$$$
ETAM-pdb2bmf-B-LYS-430:MSM-pdb2bmf-B-MET-447
     RDKit          3D

 20 18  0  0  0  0  0  0  0  0999 V2000
    1.2656    0.8738   -0.0000 C   0  0  0  0  0  0  0  0  0  0  0  0
    1.2896    1.3905    0.8514 H   0  0  0  0  0  0  0  0  0  0  0  0
    1.2169    1.4950   -0.7774 H   0  0  0  0  0  0  0  0  0  0  0  0
    2.1800    0.2858   -0.0781 H   0  0  0  0  0  0  0  0  0  0  0  0
    0.0000    0.0000    0.0000 C   0  0  0  0  0  0  0  0  0  0  0  0
    0.0126   -0.5834   -0.8161 H   0  0  0  0  0  0  0  0  0  0  0  0
    0.0119   -0.5836    0.8163 H   0  0  0  0  0  0  0  0  0  0  0  0
   -1.2656    0.8136    0.0000 N   0  0  0  0  0  4  0  0  0  0  0  0
   -1.0858    1.6919   -0.4363 H   0  0  0  0  0  0  0  0  0  0  0  0
   -1.9682    0.3193   -0.5061 H   0  0  0  0  0  0  0  0  0  0  0  0
   -1.5593    0.9541    0.9422 H   0  0  0  0  0  0  0  0  0  0  0  0
    0.0110    0.0273   -5.2353 C   0  0  0  0  0  0  0  0  0  0  0  0
    0.7133   -0.6375   -5.5851 H   0  0  0  0  0  0  0  0  0  0  0  0
    0.4728    0.9456   -5.2644 H   0  0  0  0  0  0  0  0  0  0  0  0
   -0.8268    0.0406   -5.9325 H   0  0  0  0  0  0  0  0  0  0  0  0
   -0.4834   -0.3864   -3.5639 S   0  0  0  0  0  0  0  0  0  0  0  0
   -1.0029    1.2436   -2.9750 C   0  0  0  0  0  0  0  0  0  0  0  0
   -1.9816    1.2240   -2.7791 H   0  0  0  0  0  0  0  0  0  0  0  0
   -0.4952    1.4680   -2.1452 H   0  0  0  0  0  0  0  0  0  0  0  0
   -0.8131    1.9221   -3.6822 H   0  0  0  0  0  0  0  0  0  0  0  0
  1  5  1  0
  5  8  1  0
  1  2  1  0
  1  3  1  0
  1  4  1  0
  5  6  1  0
  5  7  1  0
  8  9  1  0
  8 10  1  0
  8 11  1  0
 12 16  1  0
 16 17  1  0
 12 13  1  0
 12 14  1  0
 12 15  1  0
 17 18  1  0
 17 19  1  0
 17 20  1  0
M  CHG  1   8   1
M  END
>  <PDB_ID>  (46) 
pdb2bmf

>  <RESIDUE_NAME>  (46) 
LYS   MET

>  <FRAG_NAME>  (46) 
ETAM   MSM

>  <FRAG_ATOM_NUM>  (46) 
fragi: 11  fragj: 9

>  <atom.prop.CHAIN_ID>  (46) 
A A A A A A A A A A A Z Z Z Z Z Z Z Z Z

>  <atom.prop.IS_HEAVY_ATOM>  (46) 
1 0 0 0 1 0 0 1 0 0 0 1 0 0 0 1 1 0 0 0

>  <DIFUSE_FUNC_ATOM>  (46) 
n/a

>  <FINAL_SINGLE_POINT_ENERGY>  (46) 
0

>  <NONCOV_INTER_ENERGY_QM>  (46) 
0

>  <FF_Energy>  (46) 
2.26

>  <QM_Energy>  (46) 
-3.52

>  <source>  (46) 
ETAM_MSM

>  <Index>  (46) 
295

$$$$
ETAM-pdb2bmo-B-LYS-51:MSM-pdb2bmo-B-MET-103
     RDKit          3D

 20 18  0  0  0  0  0  0  0  0999 V2000
    1.2461    0.8707    0.0000 C   0  0  0  0  0  0  0  0  0  0  0  0
    1.6468    0.8506    0.9090 H   0  0  0  0  0  0  0  0  0  0  0  0
    0.9851    1.7971   -0.2450 H   0  0  0  0  0  0  0  0  0  0  0  0
    1.9816    0.5082   -0.7183 H   0  0  0  0  0  0  0  0  0  0  0  0
    0.0000    0.0000    0.0000 C   0  0  0  0  0  0  0  0  0  0  0  0
    0.0109   -0.5840   -0.8158 H   0  0  0  0  0  0  0  0  0  0  0  0
    0.0106   -0.5843    0.8165 H   0  0  0  0  0  0  0  0  0  0  0  0
   -1.2461    0.8150   -0.0000 N   0  0  0  0  0  4  0  0  0  0  0  0
   -1.9266    0.3791    0.5872 H   0  0  0  0  0  0  0  0  0  0  0  0
   -1.0432    1.7311    0.3445 H   0  0  0  0  0  0  0  0  0  0  0  0
   -1.5998    0.8789   -0.9329 H   0  0  0  0  0  0  0  0  0  0  0  0
    2.1708    3.8628   -4.3118 C   0  0  0  0  0  0  0  0  0  0  0  0
    2.9297    3.9362   -4.9679 H   0  0  0  0  0  0  0  0  0  0  0  0
    2.3313    4.5171   -3.5641 H   0  0  0  0  0  0  0  0  0  0  0  0
    1.2425    4.1269   -4.8183 H   0  0  0  0  0  0  0  0  0  0  0  0
    2.0207    2.1850   -3.6818 S   0  0  0  0  0  0  0  0  0  0  0  0
    0.5870    2.3506   -2.6208 C   0  0  0  0  0  0  0  0  0  0  0  0
    0.1121    1.4718   -2.5592 H   0  0  0  0  0  0  0  0  0  0  0  0
    0.8771    2.6355   -1.7061 H   0  0  0  0  0  0  0  0  0  0  0  0
   -0.0347    3.0380   -3.0007 H   0  0  0  0  0  0  0  0  0  0  0  0
  1  5  1  0
  5  8  1  0
  1  2  1  0
  1  3  1  0
  1  4  1  0
  5  6  1  0
  5  7  1  0
  8  9  1  0
  8 10  1  0
  8 11  1  0
 12 16  1  0
 16 17  1  0
 12 13  1  0
 12 14  1  0
 12 15  1  0
 17 18  1  0
 17 19  1  0
 17 20  1  0
M  CHG  1   8   1
M  END
>  <PDB_ID>  (47) 
pdb2bmo

>  <RESIDUE_NAME>  (47) 
LYS   MET

>  <FRAG_NAME>  (47) 
ETAM   MSM

>  <FRAG_ATOM_NUM>  (47) 
fragi: 11  fragj: 9

>  <atom.prop.CHAIN_ID>  (47) 
A A A A A A A A A A A Z Z Z Z Z Z Z Z Z

>  <atom.prop.IS_HEAVY_ATOM>  (47) 
1 0 0 0 1 0 0 1 0 0 0 1 0 0 0 1 1 0 0 0

>  <DIFUSE_FUNC_ATOM>  (47) 
n/a

>  <FINAL_SINGLE_POINT_ENERGY>  (47) 
0

>  <NONCOV_INTER_ENERGY_QM>  (47) 
0

>  <FF_Energy>  (47) 
9.51

>  <QM_Energy>  (47) 
1.73

>  <source>  (47) 
ETAM_MSM

>  <Index>  (47) 
298

$$$$
ETAM-pdb1b55-A-LYS-141:MSM-pdb1b55-A-MET-163
     RDKit          3D

 20 18  0  0  0  0  0  0  0  0999 V2000
    1.2210    0.8915    0.0000 C   0  0  0  0  0  0  0  0  0  0  0  0
    1.2873    1.3498    0.8768 H   0  0  0  0  0  0  0  0  0  0  0  0
    1.1421    1.5474   -0.7382 H   0  0  0  0  0  0  0  0  0  0  0  0
    2.1258    0.3033   -0.1528 H   0  0  0  0  0  0  0  0  0  0  0  0
    0.0000    0.0000    0.0000 C   0  0  0  0  0  0  0  0  0  0  0  0
    0.0147   -0.5724   -0.8163 H   0  0  0  0  0  0  0  0  0  0  0  0
    0.0135   -0.5719    0.8163 H   0  0  0  0  0  0  0  0  0  0  0  0
   -1.2210    0.8295    0.0000 N   0  0  0  0  0  4  0  0  0  0  0  0
   -1.6062    0.8641    0.9245 H   0  0  0  0  0  0  0  0  0  0  0  0
   -0.9977    1.7591   -0.2997 H   0  0  0  0  0  0  0  0  0  0  0  0
   -1.8974    0.4347   -0.6254 H   0  0  0  0  0  0  0  0  0  0  0  0
    0.1215    1.1906    4.5125 C   0  0  0  0  0  0  0  0  0  0  0  0
    1.0066    0.7003    4.2498 H   0  0  0  0  0  0  0  0  0  0  0  0
   -0.4053    0.4515    5.0311 H   0  0  0  0  0  0  0  0  0  0  0  0
    0.3749    1.9798    5.2204 H   0  0  0  0  0  0  0  0  0  0  0  0
   -0.8040    1.6657    2.9917 S   0  0  0  0  0  0  0  0  0  0  0  0
   -1.4566    0.0060    2.5898 C   0  0  0  0  0  0  0  0  0  0  0  0
   -0.7678   -0.4874    2.0680 H   0  0  0  0  0  0  0  0  0  0  0  0
   -1.6548   -0.4712    3.4399 H   0  0  0  0  0  0  0  0  0  0  0  0
   -2.2873    0.1135    2.0523 H   0  0  0  0  0  0  0  0  0  0  0  0
  1  5  1  0
  5  8  1  0
  1  2  1  0
  1  3  1  0
  1  4  1  0
  5  6  1  0
  5  7  1  0
  8  9  1  0
  8 10  1  0
  8 11  1  0
 12 16  1  0
 16 17  1  0
 12 13  1  0
 12 14  1  0
 12 15  1  0
 17 18  1  0
 17 19  1  0
 17 20  1  0
M  CHG  1   8   1
M  END
>  <PDB_ID>  (48) 
pdb1b55

>  <RESIDUE_NAME>  (48) 
LYS   MET

>  <FRAG_NAME>  (48) 
ETAM   MSM

>  <FRAG_ATOM_NUM>  (48) 
fragi: 11  fragj: 9

>  <atom.prop.CHAIN_ID>  (48) 
A A A A A A A A A A A Z Z Z Z Z Z Z Z Z

>  <atom.prop.IS_HEAVY_ATOM>  (48) 
1 0 0 0 1 0 0 1 0 0 0 1 0 0 0 1 1 0 0 0

>  <DIFUSE_FUNC_ATOM>  (48) 
n/a

>  <FINAL_SINGLE_POINT_ENERGY>  (48) 
0

>  <NONCOV_INTER_ENERGY_QM>  (48) 
0

>  <FF_Energy>  (48) 
48.26

>  <QM_Energy>  (48) 
5.39

>  <source>  (48) 
ETAM_MSM

>  <Index>  (48) 
302

$$$$
ETAM-pdb2bq0-A-LYS-11:MSM-pdb2bq0-A-MET-3
     RDKit          3D

 20 18  0  0  0  0  0  0  0  0999 V2000
    1.2316    0.8728   -0.0000 C   0  0  0  0  0  0  0  0  0  0  0  0
    1.4902    1.0648    0.9479 H   0  0  0  0  0  0  0  0  0  0  0  0
    1.0180    1.7318   -0.4659 H   0  0  0  0  0  0  0  0  0  0  0  0
    2.0773    0.4042   -0.5034 H   0  0  0  0  0  0  0  0  0  0  0  0
    0.0000    0.0000    0.0000 C   0  0  0  0  0  0  0  0  0  0  0  0
    0.0066   -0.5780   -0.8167 H   0  0  0  0  0  0  0  0  0  0  0  0
    0.0053   -0.5785    0.8158 H   0  0  0  0  0  0  0  0  0  0  0  0
   -1.2316    0.8303   -0.0000 N   0  0  0  0  0  4  0  0  0  0  0  0
   -2.0320    0.2389   -0.0981 H   0  0  0  0  0  0  0  0  0  0  0  0
   -1.2927    1.3351    0.8608 H   0  0  0  0  0  0  0  0  0  0  0  0
   -1.1985    1.4768   -0.7630 H   0  0  0  0  0  0  0  0  0  0  0  0
   -1.8633    0.7567    5.2669 C   0  0  0  0  0  0  0  0  0  0  0  0
   -2.4232    0.8676    6.1241 H   0  0  0  0  0  0  0  0  0  0  0  0
   -1.0801    1.4175    5.3770 H   0  0  0  0  0  0  0  0  0  0  0  0
   -1.4535   -0.2533    5.2625 H   0  0  0  0  0  0  0  0  0  0  0  0
   -2.8503    1.1724    3.7982 S   0  0  0  0  0  0  0  0  0  0  0  0
   -1.6478    1.1788    2.4304 C   0  0  0  0  0  0  0  0  0  0  0  0
   -2.0352    1.6848    1.6646 H   0  0  0  0  0  0  0  0  0  0  0  0
   -0.8091    1.6169    2.7428 H   0  0  0  0  0  0  0  0  0  0  0  0
   -1.4626    0.2377    2.1614 H   0  0  0  0  0  0  0  0  0  0  0  0
  1  5  1  0
  5  8  1  0
  1  2  1  0
  1  3  1  0
  1  4  1  0
  5  6  1  0
  5  7  1  0
  8  9  1  0
  8 10  1  0
  8 11  1  0
 12 16  1  0
 16 17  1  0
 12 13  1  0
 12 14  1  0
 12 15  1  0
 17 18  1  0
 17 19  1  0
 17 20  1  0
M  CHG  1   8   1
M  END
>  <PDB_ID>  (49) 
pdb2bq0

>  <RESIDUE_NAME>  (49) 
LYS   MET

>  <FRAG_NAME>  (49) 
ETAM   MSM

>  <FRAG_ATOM_NUM>  (49) 
fragi: 11  fragj: 9

>  <atom.prop.CHAIN_ID>  (49) 
A A A A A A A A A A A Z Z Z Z Z Z Z Z Z

>  <atom.prop.IS_HEAVY_ATOM>  (49) 
1 0 0 0 1 0 0 1 0 0 0 1 0 0 0 1 1 0 0 0

>  <DIFUSE_FUNC_ATOM>  (49) 
n/a

>  <FINAL_SINGLE_POINT_ENERGY>  (49) 
0

>  <NONCOV_INTER_ENERGY_QM>  (49) 
0

>  <FF_Energy>  (49) 
45.57

>  <QM_Energy>  (49) 
23.35

>  <source>  (49) 
ETAM_MSM

>  <Index>  (49) 
311

$$$$
ETAM-pdb1b72-A-LYS-259:MSM-pdb1b72-A-MET-256
     RDKit          3D

 20 18  0  0  0  0  0  0  0  0999 V2000
    1.2504    0.8720    0.0000 C   0  0  0  0  0  0  0  0  0  0  0  0
    1.2427    1.4376    0.8128 H   0  0  0  0  0  0  0  0  0  0  0  0
    1.2498    1.4258   -0.8204 H   0  0  0  0  0  0  0  0  0  0  0  0
    2.1486    0.2546    0.0091 H   0  0  0  0  0  0  0  0  0  0  0  0
    0.0000    0.0000    0.0000 C   0  0  0  0  0  0  0  0  0  0  0  0
    0.0187   -0.5897   -0.8164 H   0  0  0  0  0  0  0  0  0  0  0  0
    0.0188   -0.5894    0.8161 H   0  0  0  0  0  0  0  0  0  0  0  0
   -1.2504    0.7975    0.0000 N   0  0  0  0  0  4  0  0  0  0  0  0
   -1.7436    0.6466    0.8575 H   0  0  0  0  0  0  0  0  0  0  0  0
   -1.0269    1.7684   -0.0880 H   0  0  0  0  0  0  0  0  0  0  0  0
   -1.8262    0.5170   -0.7691 H   0  0  0  0  0  0  0  0  0  0  0  0
   -2.1787   -0.4125   -5.0889 C   0  0  0  0  0  0  0  0  0  0  0  0
   -1.8615   -0.3043   -6.0566 H   0  0  0  0  0  0  0  0  0  0  0  0
   -3.2011   -0.4593   -5.1349 H   0  0  0  0  0  0  0  0  0  0  0  0
   -1.8031   -1.3604   -4.7034 H   0  0  0  0  0  0  0  0  0  0  0  0
   -1.6525    1.0013   -4.0870 S   0  0  0  0  0  0  0  0  0  0  0  0
   -2.5297    0.6396   -2.5893 C   0  0  0  0  0  0  0  0  0  0  0  0
   -2.0151    0.9816   -1.7970 H   0  0  0  0  0  0  0  0  0  0  0  0
   -3.4325    1.0779   -2.6032 H   0  0  0  0  0  0  0  0  0  0  0  0
   -2.6516   -0.3524   -2.4919 H   0  0  0  0  0  0  0  0  0  0  0  0
  1  5  1  0
  5  8  1  0
  1  2  1  0
  1  3  1  0
  1  4  1  0
  5  6  1  0
  5  7  1  0
  8  9  1  0
  8 10  1  0
  8 11  1  0
 12 16  1  0
 16 17  1  0
 12 13  1  0
 12 14  1  0
 12 15  1  0
 17 18  1  0
 17 19  1  0
 17 20  1  0
M  CHG  1   8   1
M  END
>  <PDB_ID>  (50) 
pdb1b72

>  <RESIDUE_NAME>  (50) 
LYS   MET

>  <FRAG_NAME>  (50) 
ETAM   MSM

>  <FRAG_ATOM_NUM>  (50) 
fragi: 11  fragj: 9

>  <atom.prop.CHAIN_ID>  (50) 
A A A A A A A A A A A Z Z Z Z Z Z Z Z Z

>  <atom.prop.IS_HEAVY_ATOM>  (50) 
1 0 0 0 1 0 0 1 0 0 0 1 0 0 0 1 1 0 0 0

>  <DIFUSE_FUNC_ATOM>  (50) 
n/a

>  <FINAL_SINGLE_POINT_ENERGY>  (50) 
0

>  <NONCOV_INTER_ENERGY_QM>  (50) 
0

>  <FF_Energy>  (50) 
26.45

>  <QM_Energy>  (50) 
12.74

>  <source>  (50) 
ETAM_MSM

>  <Index>  (50) 
316

$$$$
ETAM-pdb1b8g-A-LYS-193:MSM-pdb1b8g-B-MET-3
     RDKit          3D

 20 18  0  0  0  0  0  0  0  0999 V2000
    1.2599    0.8625   -0.0000 C   0  0  0  0  0  0  0  0  0  0  0  0
    1.9675    0.3922    0.5189 H   0  0  0  0  0  0  0  0  0  0  0  0
    1.0467    1.7377    0.4256 H   0  0  0  0  0  0  0  0  0  0  0  0
    1.6345    1.0481   -1.0066 H   0  0  0  0  0  0  0  0  0  0  0  0
    0.0000    0.0000    0.0000 C   0  0  0  0  0  0  0  0  0  0  0  0
    0.0055   -0.5846   -0.8164 H   0  0  0  0  0  0  0  0  0  0  0  0
    0.0050   -0.5846    0.8165 H   0  0  0  0  0  0  0  0  0  0  0  0
   -1.2599    0.8207   -0.0000 N   0  0  0  0  0  4  0  0  0  0  0  0
   -1.0215    1.7800   -0.1333 H   0  0  0  0  0  0  0  0  0  0  0  0
   -1.8490    0.5090   -0.7419 H   0  0  0  0  0  0  0  0  0  0  0  0
   -1.7227    0.7033    0.8751 H   0  0  0  0  0  0  0  0  0  0  0  0
   -2.8050   -1.5181    4.4234 C   0  0  0  0  0  0  0  0  0  0  0  0
   -3.7607   -1.8293    4.5615 H   0  0  0  0  0  0  0  0  0  0  0  0
   -2.4121   -1.3429    5.3418 H   0  0  0  0  0  0  0  0  0  0  0  0
   -2.2390   -2.3146    3.9404 H   0  0  0  0  0  0  0  0  0  0  0  0
   -2.7593   -0.0247    3.4139 S   0  0  0  0  0  0  0  0  0  0  0  0
   -4.1448    0.8980    4.1027 C   0  0  0  0  0  0  0  0  0  0  0  0
   -3.8174    1.7767    4.4489 H   0  0  0  0  0  0  0  0  0  0  0  0
   -4.8267    1.0521    3.3887 H   0  0  0  0  0  0  0  0  0  0  0  0
   -4.5530    0.3734    4.8494 H   0  0  0  0  0  0  0  0  0  0  0  0
  1  5  1  0
  5  8  1  0
  1  2  1  0
  1  3  1  0
  1  4  1  0
  5  6  1  0
  5  7  1  0
  8  9  1  0
  8 10  1  0
  8 11  1  0
 12 16  1  0
 16 17  1  0
 12 13  1  0
 12 14  1  0
 12 15  1  0
 17 18  1  0
 17 19  1  0
 17 20  1  0
M  CHG  1   8   1
M  END
>  <PDB_ID>  (51) 
pdb1b8g

>  <RESIDUE_NAME>  (51) 
LYS   MET

>  <FRAG_NAME>  (51) 
ETAM   MSM

>  <FRAG_ATOM_NUM>  (51) 
fragi: 11  fragj: 9

>  <atom.prop.CHAIN_ID>  (51) 
A A A A A A A A A A A Z Z Z Z Z Z Z Z Z

>  <atom.prop.IS_HEAVY_ATOM>  (51) 
1 0 0 0 1 0 0 1 0 0 0 1 0 0 0 1 1 0 0 0

>  <DIFUSE_FUNC_ATOM>  (51) 
n/a

>  <FINAL_SINGLE_POINT_ENERGY>  (51) 
0

>  <NONCOV_INTER_ENERGY_QM>  (51) 
0

>  <FF_Energy>  (51) 
-4.99

>  <QM_Energy>  (51) 
-12.48

>  <source>  (51) 
ETAM_MSM

>  <Index>  (51) 
328

$$$$
ETAM-pdb1b9s-A-LYS-203:MSM-pdb1b9s-A-MET-174
     RDKit          3D

 20 18  0  0  0  0  0  0  0  0999 V2000
    1.2482    0.8673    0.0000 C   0  0  0  0  0  0  0  0  0  0  0  0
    1.5332    1.0140   -0.9445 H   0  0  0  0  0  0  0  0  0  0  0  0
    1.9662    0.3900    0.5011 H   0  0  0  0  0  0  0  0  0  0  0  0
    1.0749    1.8357    0.4693 H   0  0  0  0  0  0  0  0  0  0  0  0
    0.0000    0.0000    0.0000 C   0  0  0  0  0  0  0  0  0  0  0  0
    0.0129   -0.5880   -0.8162 H   0  0  0  0  0  0  0  0  0  0  0  0
    0.0128   -0.5875    0.8165 H   0  0  0  0  0  0  0  0  0  0  0  0
   -1.2482    0.8076   -0.0000 N   0  0  0  0  0  4  0  0  0  0  0  0
   -1.0390    1.7427    0.2858 H   0  0  0  0  0  0  0  0  0  0  0  0
   -1.6367    0.8185   -0.9212 H   0  0  0  0  0  0  0  0  0  0  0  0
   -1.9059    0.4037    0.6358 H   0  0  0  0  0  0  0  0  0  0  0  0
   -3.3192    2.3532   -3.6825 C   0  0  0  0  0  0  0  0  0  0  0  0
   -3.6867    2.9122   -4.4566 H   0  0  0  0  0  0  0  0  0  0  0  0
   -4.1286    2.1022   -3.1089 H   0  0  0  0  0  0  0  0  0  0  0  0
   -2.8827    1.4407   -4.0887 H   0  0  0  0  0  0  0  0  0  0  0  0
   -2.1279    3.3217   -2.7092 S   0  0  0  0  0  0  0  0  0  0  0  0
   -1.6808    4.5977   -3.8766 C   0  0  0  0  0  0  0  0  0  0  0  0
   -1.0321    4.2310   -4.5469 H   0  0  0  0  0  0  0  0  0  0  0  0
   -2.4999    4.9212   -4.3537 H   0  0  0  0  0  0  0  0  0  0  0  0
   -1.2562    5.3651   -3.3922 H   0  0  0  0  0  0  0  0  0  0  0  0
  1  5  1  0
  5  8  1  0
  1  2  1  0
  1  3  1  0
  1  4  1  0
  5  6  1  0
  5  7  1  0
  8  9  1  0
  8 10  1  0
  8 11  1  0
 12 16  1  0
 16 17  1  0
 12 13  1  0
 12 14  1  0
 12 15  1  0
 17 18  1  0
 17 19  1  0
 17 20  1  0
M  CHG  1   8   1
M  END
>  <PDB_ID>  (52) 
pdb1b9s

>  <RESIDUE_NAME>  (52) 
LYS   MET

>  <FRAG_NAME>  (52) 
ETAM   MSM

>  <FRAG_ATOM_NUM>  (52) 
fragi: 11  fragj: 9

>  <atom.prop.CHAIN_ID>  (52) 
A A A A A A A A A A A Z Z Z Z Z Z Z Z Z

>  <atom.prop.IS_HEAVY_ATOM>  (52) 
1 0 0 0 1 0 0 1 0 0 0 1 0 0 0 1 1 0 0 0

>  <DIFUSE_FUNC_ATOM>  (52) 
n/a

>  <FINAL_SINGLE_POINT_ENERGY>  (52) 
0

>  <NONCOV_INTER_ENERGY_QM>  (52) 
0

>  <FF_Energy>  (52) 
-4.66

>  <QM_Energy>  (52) 
-10.02

>  <source>  (52) 
ETAM_MSM

>  <Index>  (52) 
336

$$$$
ETAM-pdb2bwj-D-LYS-80:MSM-pdb2bwj-D-MET-5
     RDKit          3D

 20 18  0  0  0  0  0  0  0  0999 V2000
    1.2322    0.8763   -0.0000 C   0  0  0  0  0  0  0  0  0  0  0  0
    1.2144    1.4531    0.8174 H   0  0  0  0  0  0  0  0  0  0  0  0
    1.2144    1.4541   -0.8162 H   0  0  0  0  0  0  0  0  0  0  0  0
    2.1558    0.2975    0.0005 H   0  0  0  0  0  0  0  0  0  0  0  0
    0.0000    0.0000    0.0000 C   0  0  0  0  0  0  0  0  0  0  0  0
    0.0081   -0.5777   -0.8169 H   0  0  0  0  0  0  0  0  0  0  0  0
    0.0075   -0.5783    0.8159 H   0  0  0  0  0  0  0  0  0  0  0  0
   -1.2322    0.8287    0.0000 N   0  0  0  0  0  4  0  0  0  0  0  0
   -1.1003    1.6222   -0.5942 H   0  0  0  0  0  0  0  0  0  0  0  0
   -2.0002    0.2840   -0.3370 H   0  0  0  0  0  0  0  0  0  0  0  0
   -1.4256    1.1386    0.9308 H   0  0  0  0  0  0  0  0  0  0  0  0
   -4.4420   -2.5444    1.7157 C   0  0  0  0  0  0  0  0  0  0  0  0
   -4.4176   -3.0088    0.8299 H   0  0  0  0  0  0  0  0  0  0  0  0
   -5.2935   -2.0240    1.7929 H   0  0  0  0  0  0  0  0  0  0  0  0
   -4.3747   -3.2746    2.5222 H   0  0  0  0  0  0  0  0  0  0  0  0
   -3.0082   -1.4202    1.8716 S   0  0  0  0  0  0  0  0  0  0  0  0
   -3.3130   -0.7579    3.5131 C   0  0  0  0  0  0  0  0  0  0  0  0
   -4.2815   -0.5216    3.6027 H   0  0  0  0  0  0  0  0  0  0  0  0
   -3.0720   -1.4440    4.1999 H   0  0  0  0  0  0  0  0  0  0  0  0
   -2.7565    0.0620    3.6503 H   0  0  0  0  0  0  0  0  0  0  0  0
  1  5  1  0
  5  8  1  0
  1  2  1  0
  1  3  1  0
  1  4  1  0
  5  6  1  0
  5  7  1  0
  8  9  1  0
  8 10  1  0
  8 11  1  0
 12 16  1  0
 16 17  1  0
 12 13  1  0
 12 14  1  0
 12 15  1  0
 17 18  1  0
 17 19  1  0
 17 20  1  0
M  CHG  1   8   1
M  END
>  <PDB_ID>  (53) 
pdb2bwj

>  <RESIDUE_NAME>  (53) 
LYS   MET

>  <FRAG_NAME>  (53) 
ETAM   MSM

>  <FRAG_ATOM_NUM>  (53) 
fragi: 11  fragj: 9

>  <atom.prop.CHAIN_ID>  (53) 
A A A A A A A A A A A Z Z Z Z Z Z Z Z Z

>  <atom.prop.IS_HEAVY_ATOM>  (53) 
1 0 0 0 1 0 0 1 0 0 0 1 0 0 0 1 1 0 0 0

>  <DIFUSE_FUNC_ATOM>  (53) 
n/a

>  <FINAL_SINGLE_POINT_ENERGY>  (53) 
0

>  <NONCOV_INTER_ENERGY_QM>  (53) 
0

>  <FF_Energy>  (53) 
-5.34

>  <QM_Energy>  (53) 
-12.94

>  <source>  (53) 
ETAM_MSM

>  <Index>  (53) 
339

$$$$
ETAM-pdb1bbr-H-LYS-36:MSM-pdb1bbr-H-MET-84
     RDKit          3D

 20 18  0  0  0  0  0  0  0  0999 V2000
    1.2238    0.8539    0.0000 C   0  0  0  0  0  0  0  0  0  0  0  0
    1.7337    0.6967    0.8594 H   0  0  0  0  0  0  0  0  0  0  0  0
    0.9455    1.8258   -0.0184 H   0  0  0  0  0  0  0  0  0  0  0  0
    1.9008    0.6757   -0.8354 H   0  0  0  0  0  0  0  0  0  0  0  0
    0.0000    0.0000    0.0000 C   0  0  0  0  0  0  0  0  0  0  0  0
   -0.0250   -0.5642   -0.8161 H   0  0  0  0  0  0  0  0  0  0  0  0
   -0.0253   -0.5647    0.8166 H   0  0  0  0  0  0  0  0  0  0  0  0
   -1.2238    0.8900   -0.0000 N   0  0  0  0  0  4  0  0  0  0  0  0
   -0.9538    1.8045   -0.2882 H   0  0  0  0  0  0  0  0  0  0  0  0
   -1.8928    0.5123   -0.6334 H   0  0  0  0  0  0  0  0  0  0  0  0
   -1.5990    0.9166    0.9218 H   0  0  0  0  0  0  0  0  0  0  0  0
   -3.3406    4.7940   -1.5963 C   0  0  0  0  0  0  0  0  0  0  0  0
   -2.6060    5.0554   -2.1960 H   0  0  0  0  0  0  0  0  0  0  0  0
   -3.7860    5.5738   -1.1944 H   0  0  0  0  0  0  0  0  0  0  0  0
   -4.0676    4.1918   -2.1411 H   0  0  0  0  0  0  0  0  0  0  0  0
   -2.7185    3.6753   -0.2856 S   0  0  0  0  0  0  0  0  0  0  0  0
   -4.3253    3.3734    0.5451 C   0  0  0  0  0  0  0  0  0  0  0  0
   -4.1745    2.7497    1.3044 H   0  0  0  0  0  0  0  0  0  0  0  0
   -4.6776    4.2429    0.8734 H   0  0  0  0  0  0  0  0  0  0  0  0
   -4.9499    2.9723   -0.1161 H   0  0  0  0  0  0  0  0  0  0  0  0
  1  5  1  0
  5  8  1  0
  1  2  1  0
  1  3  1  0
  1  4  1  0
  5  6  1  0
  5  7  1  0
  8  9  1  0
  8 10  1  0
  8 11  1  0
 12 16  1  0
 16 17  1  0
 12 13  1  0
 12 14  1  0
 12 15  1  0
 17 18  1  0
 17 19  1  0
 17 20  1  0
M  CHG  1   8   1
M  END
>  <PDB_ID>  (54) 
pdb1bbr

>  <RESIDUE_NAME>  (54) 
LYS   MET

>  <FRAG_NAME>  (54) 
ETAM   MSM

>  <FRAG_ATOM_NUM>  (54) 
fragi: 11  fragj: 9

>  <atom.prop.CHAIN_ID>  (54) 
A A A A A A A A A A A Z Z Z Z Z Z Z Z Z

>  <atom.prop.IS_HEAVY_ATOM>  (54) 
1 0 0 0 1 0 0 1 0 0 0 1 0 0 0 1 1 0 0 0

>  <DIFUSE_FUNC_ATOM>  (54) 
n/a

>  <FINAL_SINGLE_POINT_ENERGY>  (54) 
0

>  <NONCOV_INTER_ENERGY_QM>  (54) 
0

>  <FF_Energy>  (54) 
-4.45

>  <QM_Energy>  (54) 
-12.5

>  <source>  (54) 
ETAM_MSM

>  <Index>  (54) 
348

$$$$
ETAM-pdb1bbr-K-LYS-36:MSM-pdb1bbr-K-MET-84
     RDKit          3D

 20 18  0  0  0  0  0  0  0  0999 V2000
    1.2035    0.9386    0.0000 C   0  0  0  0  0  0  0  0  0  0  0  0
    1.4156    1.1792    0.9423 H   0  0  0  0  0  0  0  0  0  0  0  0
    0.9676    1.7526   -0.5208 H   0  0  0  0  0  0  0  0  0  0  0  0
    2.0785    0.4702   -0.4509 H   0  0  0  0  0  0  0  0  0  0  0  0
    0.0000    0.0000    0.0000 C   0  0  0  0  0  0  0  0  0  0  0  0
    0.0036   -0.5322   -0.8161 H   0  0  0  0  0  0  0  0  0  0  0  0
    0.0030   -0.5325    0.8162 H   0  0  0  0  0  0  0  0  0  0  0  0
   -1.2035    0.9037    0.0000 N   0  0  0  0  0  4  0  0  0  0  0  0
   -0.9201    1.8197    0.2721 H   0  0  0  0  0  0  0  0  0  0  0  0
   -1.5918    0.9250   -0.9180 H   0  0  0  0  0  0  0  0  0  0  0  0
   -1.8751    0.5479    0.6453 H   0  0  0  0  0  0  0  0  0  0  0  0
   -2.0185    4.2854   -2.9141 C   0  0  0  0  0  0  0  0  0  0  0  0
   -1.3297    3.5742   -2.9553 H   0  0  0  0  0  0  0  0  0  0  0  0
   -1.6106    5.1800   -3.0405 H   0  0  0  0  0  0  0  0  0  0  0  0
   -2.7721    4.1126   -3.6824 H   0  0  0  0  0  0  0  0  0  0  0  0
   -2.9045    4.2147   -1.3094 S   0  0  0  0  0  0  0  0  0  0  0  0
   -2.9836    5.9929   -0.9177 C   0  0  0  0  0  0  0  0  0  0  0  0
   -2.8208    6.5119   -1.7518 H   0  0  0  0  0  0  0  0  0  0  0  0
   -3.8872    6.2013   -0.5544 H   0  0  0  0  0  0  0  0  0  0  0  0
   -2.2846    6.2035   -0.2403 H   0  0  0  0  0  0  0  0  0  0  0  0
  1  5  1  0
  5  8  1  0
  1  2  1  0
  1  3  1  0
  1  4  1  0
  5  6  1  0
  5  7  1  0
  8  9  1  0
  8 10  1  0
  8 11  1  0
 12 16  1  0
 16 17  1  0
 12 13  1  0
 12 14  1  0
 12 15  1  0
 17 18  1  0
 17 19  1  0
 17 20  1  0
M  CHG  1   8   1
M  END
>  <PDB_ID>  (55) 
pdb1bbr

>  <RESIDUE_NAME>  (55) 
LYS   MET

>  <FRAG_NAME>  (55) 
ETAM   MSM

>  <FRAG_ATOM_NUM>  (55) 
fragi: 11  fragj: 9

>  <atom.prop.CHAIN_ID>  (55) 
A A A A A A A A A A A Z Z Z Z Z Z Z Z Z

>  <atom.prop.IS_HEAVY_ATOM>  (55) 
1 0 0 0 1 0 0 1 0 0 0 1 0 0 0 1 1 0 0 0

>  <DIFUSE_FUNC_ATOM>  (55) 
n/a

>  <FINAL_SINGLE_POINT_ENERGY>  (55) 
0

>  <NONCOV_INTER_ENERGY_QM>  (55) 
0

>  <FF_Energy>  (55) 
-3.86

>  <QM_Energy>  (55) 
-8.93

>  <source>  (55) 
ETAM_MSM

>  <Index>  (55) 
349

$$$$
ETAM-pdb1bbr-N-LYS-109:MSM-pdb1bbr-N-MET-84
     RDKit          3D

 20 18  0  0  0  0  0  0  0  0999 V2000
    1.2462    0.8395   -0.0000 C   0  0  0  0  0  0  0  0  0  0  0  0
    1.4733    1.0793    0.9524 H   0  0  0  0  0  0  0  0  0  0  0  0
    1.0604    1.6920   -0.5043 H   0  0  0  0  0  0  0  0  0  0  0  0
    2.1084    0.3480   -0.4506 H   0  0  0  0  0  0  0  0  0  0  0  0
    0.0000    0.0000    0.0000 C   0  0  0  0  0  0  0  0  0  0  0  0
    0.0013   -0.5966   -0.8166 H   0  0  0  0  0  0  0  0  0  0  0  0
    0.0009   -0.5973    0.8160 H   0  0  0  0  0  0  0  0  0  0  0  0
   -1.2462    0.8082    0.0000 N   0  0  0  0  0  4  0  0  0  0  0  0
   -1.7438    0.6532   -0.8534 H   0  0  0  0  0  0  0  0  0  0  0  0
   -1.8186    0.5383    0.7743 H   0  0  0  0  0  0  0  0  0  0  0  0
   -1.0146    1.7782    0.0794 H   0  0  0  0  0  0  0  0  0  0  0  0
   -3.1771   -3.2227   -0.9425 C   0  0  0  0  0  0  0  0  0  0  0  0
   -3.4824   -3.5860   -1.8173 H   0  0  0  0  0  0  0  0  0  0  0  0
   -3.4086   -3.8520   -0.2072 H   0  0  0  0  0  0  0  0  0  0  0  0
   -2.1002   -3.0560   -0.9650 H   0  0  0  0  0  0  0  0  0  0  0  0
   -3.9643   -1.5859   -0.6358 S   0  0  0  0  0  0  0  0  0  0  0  0
   -4.2027   -1.7709    1.1660 C   0  0  0  0  0  0  0  0  0  0  0  0
   -4.4922   -2.7042    1.3538 H   0  0  0  0  0  0  0  0  0  0  0  0
   -3.3399   -1.5780    1.6225 H   0  0  0  0  0  0  0  0  0  0  0  0
   -4.9013   -1.1264    1.4618 H   0  0  0  0  0  0  0  0  0  0  0  0
  1  5  1  0
  5  8  1  0
  1  2  1  0
  1  3  1  0
  1  4  1  0
  5  6  1  0
  5  7  1  0
  8  9  1  0
  8 10  1  0
  8 11  1  0
 12 16  1  0
 16 17  1  0
 12 13  1  0
 12 14  1  0
 12 15  1  0
 17 18  1  0
 17 19  1  0
 17 20  1  0
M  CHG  1   8   1
M  END
>  <PDB_ID>  (56) 
pdb1bbr

>  <RESIDUE_NAME>  (56) 
LYS   MET

>  <FRAG_NAME>  (56) 
ETAM   MSM

>  <FRAG_ATOM_NUM>  (56) 
fragi: 11  fragj: 9

>  <atom.prop.CHAIN_ID>  (56) 
A A A A A A A A A A A Z Z Z Z Z Z Z Z Z

>  <atom.prop.IS_HEAVY_ATOM>  (56) 
1 0 0 0 1 0 0 1 0 0 0 1 0 0 0 1 1 0 0 0

>  <DIFUSE_FUNC_ATOM>  (56) 
n/a

>  <FINAL_SINGLE_POINT_ENERGY>  (56) 
0

>  <NONCOV_INTER_ENERGY_QM>  (56) 
0

>  <FF_Energy>  (56) 
-3.73

>  <QM_Energy>  (56) 
-10.15

>  <source>  (56) 
ETAM_MSM

>  <Index>  (56) 
350

$$$$
ETAM-pdb2c0c-B-LYS-186:MSM-pdb2c0c-B-MET-313
     RDKit          3D

 20 18  0  0  0  0  0  0  0  0999 V2000
    1.2794    0.8829   -0.0000 C   0  0  0  0  0  0  0  0  0  0  0  0
    2.0581    0.2768   -0.1188 H   0  0  0  0  0  0  0  0  0  0  0  0
    1.3256    1.3392    0.8817 H   0  0  0  0  0  0  0  0  0  0  0  0
    1.2573    1.6216   -0.8011 H   0  0  0  0  0  0  0  0  0  0  0  0
    0.0000    0.0000    0.0000 C   0  0  0  0  0  0  0  0  0  0  0  0
    0.0336   -0.5951   -0.8164 H   0  0  0  0  0  0  0  0  0  0  0  0
    0.0325   -0.5950    0.8161 H   0  0  0  0  0  0  0  0  0  0  0  0
   -1.2794    0.7690    0.0000 N   0  0  0  0  0  4  0  0  0  0  0  0
   -1.1712    1.5884    0.5609 H   0  0  0  0  0  0  0  0  0  0  0  0
   -1.5070    1.0300   -0.9368 H   0  0  0  0  0  0  0  0  0  0  0  0
   -2.0077    0.1974    0.3762 H   0  0  0  0  0  0  0  0  0  0  0  0
    0.6368   -2.9131    4.3910 C   0  0  0  0  0  0  0  0  0  0  0  0
    0.1307   -2.0265    4.4399 H   0  0  0  0  0  0  0  0  0  0  0  0
    0.9545   -3.1098    5.3425 H   0  0  0  0  0  0  0  0  0  0  0  0
   -0.0566   -3.6959    4.0836 H   0  0  0  0  0  0  0  0  0  0  0  0
    2.0585   -2.7694    3.2656 S   0  0  0  0  0  0  0  0  0  0  0  0
    1.3791   -1.7167    2.0360 C   0  0  0  0  0  0  0  0  0  0  0  0
    1.1853   -2.2346    1.1943 H   0  0  0  0  0  0  0  0  0  0  0  0
    0.5193   -1.3040    2.3601 H   0  0  0  0  0  0  0  0  0  0  0  0
    2.0223   -0.9747    1.8109 H   0  0  0  0  0  0  0  0  0  0  0  0
  1  5  1  0
  5  8  1  0
  1  2  1  0
  1  3  1  0
  1  4  1  0
  5  6  1  0
  5  7  1  0
  8  9  1  0
  8 10  1  0
  8 11  1  0
 12 16  1  0
 16 17  1  0
 12 13  1  0
 12 14  1  0
 12 15  1  0
 17 18  1  0
 17 19  1  0
 17 20  1  0
M  CHG  1   8   1
M  END
>  <PDB_ID>  (57) 
pdb2c0c

>  <RESIDUE_NAME>  (57) 
LYS   MET

>  <FRAG_NAME>  (57) 
ETAM   MSM

>  <FRAG_ATOM_NUM>  (57) 
fragi: 11  fragj: 9

>  <atom.prop.CHAIN_ID>  (57) 
A A A A A A A A A A A Z Z Z Z Z Z Z Z Z

>  <atom.prop.IS_HEAVY_ATOM>  (57) 
1 0 0 0 1 0 0 1 0 0 0 1 0 0 0 1 1 0 0 0

>  <DIFUSE_FUNC_ATOM>  (57) 
n/a

>  <FINAL_SINGLE_POINT_ENERGY>  (57) 
0

>  <NONCOV_INTER_ENERGY_QM>  (57) 
0

>  <FF_Energy>  (57) 
18.92

>  <QM_Energy>  (57) 
4.06

>  <source>  (57) 
ETAM_MSM

>  <Index>  (57) 
368

$$$$
ETAM-pdb2c1w-B-LYS-72:MSM-pdb2c1w-B-MET-27
     RDKit          3D

 20 18  0  0  0  0  0  0  0  0999 V2000
    1.2090    0.9112    0.0000 C   0  0  0  0  0  0  0  0  0  0  0  0
    1.0496    1.6579    0.6576 H   0  0  0  0  0  0  0  0  0  0  0  0
    1.3076    1.3151   -0.9183 H   0  0  0  0  0  0  0  0  0  0  0  0
    2.1466    0.4206    0.2611 H   0  0  0  0  0  0  0  0  0  0  0  0
    0.0000    0.0000    0.0000 C   0  0  0  0  0  0  0  0  0  0  0  0
    0.0070   -0.5533   -0.8164 H   0  0  0  0  0  0  0  0  0  0  0  0
    0.0070   -0.5533    0.8165 H   0  0  0  0  0  0  0  0  0  0  0  0
   -1.2090    0.8663   -0.0000 N   0  0  0  0  0  4  0  0  0  0  0  0
   -1.2694    1.3529   -0.8710 H   0  0  0  0  0  0  0  0  0  0  0  0
   -2.0237    0.2998    0.1234 H   0  0  0  0  0  0  0  0  0  0  0  0
   -1.1446    1.5267    0.7479 H   0  0  0  0  0  0  0  0  0  0  0  0
   -2.8865    3.6597    3.1424 C   0  0  0  0  0  0  0  0  0  0  0  0
   -2.4461    4.1952    2.3833 H   0  0  0  0  0  0  0  0  0  0  0  0
   -2.7530    4.2317    3.9858 H   0  0  0  0  0  0  0  0  0  0  0  0
   -3.9556    3.6005    2.9386 H   0  0  0  0  0  0  0  0  0  0  0  0
   -2.0978    2.0459    3.3301 S   0  0  0  0  0  0  0  0  0  0  0  0
   -2.3743    1.8099    5.0812 C   0  0  0  0  0  0  0  0  0  0  0  0
   -1.7159    1.1454    5.4404 H   0  0  0  0  0  0  0  0  0  0  0  0
   -2.2591    2.6814    5.5607 H   0  0  0  0  0  0  0  0  0  0  0  0
   -3.3038    1.4689    5.2329 H   0  0  0  0  0  0  0  0  0  0  0  0
  1  5  1  0
  5  8  1  0
  1  2  1  0
  1  3  1  0
  1  4  1  0
  5  6  1  0
  5  7  1  0
  8  9  1  0
  8 10  1  0
  8 11  1  0
 12 16  1  0
 16 17  1  0
 12 13  1  0
 12 14  1  0
 12 15  1  0
 17 18  1  0
 17 19  1  0
 17 20  1  0
M  CHG  1   8   1
M  END
>  <PDB_ID>  (58) 
pdb2c1w

>  <RESIDUE_NAME>  (58) 
LYS   MET

>  <FRAG_NAME>  (58) 
ETAM   MSM

>  <FRAG_ATOM_NUM>  (58) 
fragi: 11  fragj: 9

>  <atom.prop.CHAIN_ID>  (58) 
A A A A A A A A A A A Z Z Z Z Z Z Z Z Z

>  <atom.prop.IS_HEAVY_ATOM>  (58) 
1 0 0 0 1 0 0 1 0 0 0 1 0 0 0 1 1 0 0 0

>  <DIFUSE_FUNC_ATOM>  (58) 
n/a

>  <FINAL_SINGLE_POINT_ENERGY>  (58) 
0

>  <NONCOV_INTER_ENERGY_QM>  (58) 
0

>  <FF_Energy>  (58) 
-5.33

>  <QM_Energy>  (58) 
-11.65

>  <source>  (58) 
ETAM_MSM

>  <Index>  (58) 
371

$$$$
ETAM-pdb1bg0-A-LYS-256:MSM-pdb1bg0-A-MET-159
     RDKit          3D

 20 18  0  0  0  0  0  0  0  0999 V2000
    1.2477    0.8704    0.0000 C   0  0  0  0  0  0  0  0  0  0  0  0
    1.1864    1.5123    0.7548 H   0  0  0  0  0  0  0  0  0  0  0  0
    1.2982    1.3505   -0.8668 H   0  0  0  0  0  0  0  0  0  0  0  0
    2.1451    0.2641    0.1236 H   0  0  0  0  0  0  0  0  0  0  0  0
    0.0000    0.0000    0.0000 C   0  0  0  0  0  0  0  0  0  0  0  0
    0.0145   -0.5875   -0.8162 H   0  0  0  0  0  0  0  0  0  0  0  0
    0.0147   -0.5875    0.8166 H   0  0  0  0  0  0  0  0  0  0  0  0
   -1.2477    0.8051    0.0000 N   0  0  0  0  0  4  0  0  0  0  0  0
   -1.5543    0.9452    0.9419 H   0  0  0  0  0  0  0  0  0  0  0  0
   -1.0723    1.6916   -0.4287 H   0  0  0  0  0  0  0  0  0  0  0  0
   -1.9570    0.3210   -0.5127 H   0  0  0  0  0  0  0  0  0  0  0  0
   -3.1919    5.3839    1.5476 C   0  0  0  0  0  0  0  0  0  0  0  0
   -2.7378    5.8308    0.7357 H   0  0  0  0  0  0  0  0  0  0  0  0
   -3.2543    6.1325    2.2552 H   0  0  0  0  0  0  0  0  0  0  0  0
   -4.2048    5.1039    1.2581 H   0  0  0  0  0  0  0  0  0  0  0  0
   -2.1984    4.0107    2.1580 S   0  0  0  0  0  0  0  0  0  0  0  0
   -2.7716    3.8944    3.8622 C   0  0  0  0  0  0  0  0  0  0  0  0
   -2.9240    2.9345    4.0952 H   0  0  0  0  0  0  0  0  0  0  0  0
   -2.0798    4.2818    4.4711 H   0  0  0  0  0  0  0  0  0  0  0  0
   -3.6266    4.4030    3.9586 H   0  0  0  0  0  0  0  0  0  0  0  0
  1  5  1  0
  5  8  1  0
  1  2  1  0
  1  3  1  0
  1  4  1  0
  5  6  1  0
  5  7  1  0
  8  9  1  0
  8 10  1  0
  8 11  1  0
 12 16  1  0
 16 17  1  0
 12 13  1  0
 12 14  1  0
 12 15  1  0
 17 18  1  0
 17 19  1  0
 17 20  1  0
M  CHG  1   8   1
M  END
>  <PDB_ID>  (59) 
pdb1bg0

>  <RESIDUE_NAME>  (59) 
LYS   MET

>  <FRAG_NAME>  (59) 
ETAM   MSM

>  <FRAG_ATOM_NUM>  (59) 
fragi: 11  fragj: 9

>  <atom.prop.CHAIN_ID>  (59) 
A A A A A A A A A A A Z Z Z Z Z Z Z Z Z

>  <atom.prop.IS_HEAVY_ATOM>  (59) 
1 0 0 0 1 0 0 1 0 0 0 1 0 0 0 1 1 0 0 0

>  <DIFUSE_FUNC_ATOM>  (59) 
n/a

>  <FINAL_SINGLE_POINT_ENERGY>  (59) 
0

>  <NONCOV_INTER_ENERGY_QM>  (59) 
0

>  <FF_Energy>  (59) 
-4.37

>  <QM_Energy>  (59) 
-10.17

>  <source>  (59) 
ETAM_MSM

>  <Index>  (59) 
372

$$$$
ETAM-pdb2c4n-A-LYS-4:MSM-pdb2c4n-A-MET-1
     RDKit          3D

 20 18  0  0  0  0  0  0  0  0999 V2000
    1.2417    0.8723    0.0000 C   0  0  0  0  0  0  0  0  0  0  0  0
    1.2197    1.4587    0.8048 H   0  0  0  0  0  0  0  0  0  0  0  0
    1.2423    1.4260   -0.8276 H   0  0  0  0  0  0  0  0  0  0  0  0
    2.1538    0.2761    0.0248 H   0  0  0  0  0  0  0  0  0  0  0  0
    0.0000    0.0000    0.0000 C   0  0  0  0  0  0  0  0  0  0  0  0
    0.0068   -0.5791   -0.8161 H   0  0  0  0  0  0  0  0  0  0  0  0
    0.0064   -0.5790    0.8165 H   0  0  0  0  0  0  0  0  0  0  0  0
   -1.2417    0.8287   -0.0000 N   0  0  0  0  0  4  0  0  0  0  0  0
   -1.0338    1.7338   -0.3673 H   0  0  0  0  0  0  0  0  0  0  0  0
   -1.9332    0.3854   -0.5686 H   0  0  0  0  0  0  0  0  0  0  0  0
   -1.5802    0.9150    0.9365 H   0  0  0  0  0  0  0  0  0  0  0  0
   -2.5946   -2.3514    2.3059 C   0  0  0  0  0  0  0  0  0  0  0  0
   -2.2822   -3.3304    2.2887 H   0  0  0  0  0  0  0  0  0  0  0  0
   -3.4826   -2.3605    2.8236 H   0  0  0  0  0  0  0  0  0  0  0  0
   -1.8705   -1.7728    2.8796 H   0  0  0  0  0  0  0  0  0  0  0  0
   -2.8593   -1.7386    0.6016 S   0  0  0  0  0  0  0  0  0  0  0  0
   -2.8111   -3.2001   -0.4332 C   0  0  0  0  0  0  0  0  0  0  0  0
   -3.7441   -3.4768   -0.6659 H   0  0  0  0  0  0  0  0  0  0  0  0
   -2.3049   -2.9999   -1.2733 H   0  0  0  0  0  0  0  0  0  0  0  0
   -2.3570   -3.9444    0.0588 H   0  0  0  0  0  0  0  0  0  0  0  0
  1  5  1  0
  5  8  1  0
  1  2  1  0
  1  3  1  0
  1  4  1  0
  5  6  1  0
  5  7  1  0
  8  9  1  0
  8 10  1  0
  8 11  1  0
 12 16  1  0
 16 17  1  0
 12 13  1  0
 12 14  1  0
 12 15  1  0
 17 18  1  0
 17 19  1  0
 17 20  1  0
M  CHG  1   8   1
M  END
>  <PDB_ID>  (60) 
pdb2c4n

>  <RESIDUE_NAME>  (60) 
LYS   MET

>  <FRAG_NAME>  (60) 
ETAM   MSM

>  <FRAG_ATOM_NUM>  (60) 
fragi: 11  fragj: 9

>  <atom.prop.CHAIN_ID>  (60) 
A A A A A A A A A A A Z Z Z Z Z Z Z Z Z

>  <atom.prop.IS_HEAVY_ATOM>  (60) 
1 0 0 0 1 0 0 1 0 0 0 1 0 0 0 1 1 0 0 0

>  <DIFUSE_FUNC_ATOM>  (60) 
n/a

>  <FINAL_SINGLE_POINT_ENERGY>  (60) 
0

>  <NONCOV_INTER_ENERGY_QM>  (60) 
0

>  <FF_Energy>  (60) 
-4.29

>  <QM_Energy>  (60) 
-13.26

>  <source>  (60) 
ETAM_MSM

>  <Index>  (60) 
374

$$$$
ETAM-pdb1bh5-A-LYS-156:MSM-pdb1bh5-B-MET-65
     RDKit          3D

 20 18  0  0  0  0  0  0  0  0999 V2000
    1.2469    0.8777    0.0000 C   0  0  0  0  0  0  0  0  0  0  0  0
    1.1267    1.5992    0.6855 H   0  0  0  0  0  0  0  0  0  0  0  0
    1.3400    1.2963   -0.9059 H   0  0  0  0  0  0  0  0  0  0  0  0
    2.1634    0.3331    0.2272 H   0  0  0  0  0  0  0  0  0  0  0  0
    0.0000    0.0000    0.0000 C   0  0  0  0  0  0  0  0  0  0  0  0
    0.0072   -0.5762   -0.8158 H   0  0  0  0  0  0  0  0  0  0  0  0
    0.0068   -0.5762    0.8160 H   0  0  0  0  0  0  0  0  0  0  0  0
   -1.2469    0.8314    0.0000 N   0  0  0  0  0  4  0  0  0  0  0  0
   -1.9091    0.4271   -0.6282 H   0  0  0  0  0  0  0  0  0  0  0  0
   -1.6253    0.8524    0.9231 H   0  0  0  0  0  0  0  0  0  0  0  0
   -1.0217    1.7573   -0.2953 H   0  0  0  0  0  0  0  0  0  0  0  0
   -2.3398    4.2384   -0.5314 C   0  0  0  0  0  0  0  0  0  0  0  0
   -2.9523    3.7258    0.1070 H   0  0  0  0  0  0  0  0  0  0  0  0
   -2.2986    3.6807   -1.3881 H   0  0  0  0  0  0  0  0  0  0  0  0
   -2.8156    5.1902   -0.7673 H   0  0  0  0  0  0  0  0  0  0  0  0
   -0.6945    4.4473    0.1821 S   0  0  0  0  0  0  0  0  0  0  0  0
    0.3081    4.5406   -1.2782 C   0  0  0  0  0  0  0  0  0  0  0  0
    1.2139    4.1468   -1.0997 H   0  0  0  0  0  0  0  0  0  0  0  0
   -0.1256    4.0319   -2.0268 H   0  0  0  0  0  0  0  0  0  0  0  0
    0.4195    5.4980   -1.5590 H   0  0  0  0  0  0  0  0  0  0  0  0
  1  5  1  0
  5  8  1  0
  1  2  1  0
  1  3  1  0
  1  4  1  0
  5  6  1  0
  5  7  1  0
  8  9  1  0
  8 10  1  0
  8 11  1  0
 12 16  1  0
 16 17  1  0
 12 13  1  0
 12 14  1  0
 12 15  1  0
 17 18  1  0
 17 19  1  0
 17 20  1  0
M  CHG  1   8   1
M  END
>  <PDB_ID>  (61) 
pdb1bh5

>  <RESIDUE_NAME>  (61) 
LYS   MET

>  <FRAG_NAME>  (61) 
ETAM   MSM

>  <FRAG_ATOM_NUM>  (61) 
fragi: 11  fragj: 9

>  <atom.prop.CHAIN_ID>  (61) 
A A A A A A A A A A A Z Z Z Z Z Z Z Z Z

>  <atom.prop.IS_HEAVY_ATOM>  (61) 
1 0 0 0 1 0 0 1 0 0 0 1 0 0 0 1 1 0 0 0

>  <DIFUSE_FUNC_ATOM>  (61) 
n/a

>  <FINAL_SINGLE_POINT_ENERGY>  (61) 
0

>  <NONCOV_INTER_ENERGY_QM>  (61) 
0

>  <FF_Energy>  (61) 
-4.0

>  <QM_Energy>  (61) 
-10.51

>  <source>  (61) 
ETAM_MSM

>  <Index>  (61) 
380

$$$$
ETAM-pdb1bd0-A-LYS-39:MSM-pdb1bd0-B-MET-312
     RDKit          3D

 20 18  0  0  0  0  0  0  0  0999 V2000
    1.2526    0.8830    0.0000 C   0  0  0  0  0  0  0  0  0  0  0  0
    1.2610    1.4169   -0.8446 H   0  0  0  0  0  0  0  0  0  0  0  0
    2.0561    0.2900    0.0308 H   0  0  0  0  0  0  0  0  0  0  0  0
    1.2921    1.5689    0.8462 H   0  0  0  0  0  0  0  0  0  0  0  0
    0.0000    0.0000    0.0000 C   0  0  0  0  0  0  0  0  0  0  0  0
    0.0260   -0.5885   -0.8164 H   0  0  0  0  0  0  0  0  0  0  0  0
    0.0262   -0.5883    0.8161 H   0  0  0  0  0  0  0  0  0  0  0  0
   -1.2526    0.7884   -0.0000 N   0  0  0  0  0  4  0  0  0  0  0  0
   -1.0982    1.6630   -0.4614 H   0  0  0  0  0  0  0  0  0  0  0  0
   -1.9684    0.2811   -0.4809 H   0  0  0  0  0  0  0  0  0  0  0  0
   -1.5429    0.9582    0.9427 H   0  0  0  0  0  0  0  0  0  0  0  0
   -3.9086    2.9922    1.8772 C   0  0  0  0  0  0  0  0  0  0  0  0
   -3.5567    3.8715    1.4943 H   0  0  0  0  0  0  0  0  0  0  0  0
   -4.6705    3.2434    2.5104 H   0  0  0  0  0  0  0  0  0  0  0  0
   -4.3172    2.3980    1.0599 H   0  0  0  0  0  0  0  0  0  0  0  0
   -2.5935    2.1175    2.7787 S   0  0  0  0  0  0  0  0  0  0  0  0
   -3.6071    1.1403    3.9315 C   0  0  0  0  0  0  0  0  0  0  0  0
   -3.4333    1.4567    4.8595 H   0  0  0  0  0  0  0  0  0  0  0  0
   -4.5681    1.2663    3.7004 H   0  0  0  0  0  0  0  0  0  0  0  0
   -3.3570    0.1796    3.8444 H   0  0  0  0  0  0  0  0  0  0  0  0
  1  5  1  0
  5  8  1  0
  1  2  1  0
  1  3  1  0
  1  4  1  0
  5  6  1  0
  5  7  1  0
  8  9  1  0
  8 10  1  0
  8 11  1  0
 12 16  1  0
 16 17  1  0
 12 13  1  0
 12 14  1  0
 12 15  1  0
 17 18  1  0
 17 19  1  0
 17 20  1  0
M  CHG  1   8   1
M  END
>  <PDB_ID>  (62) 
pdb1bd0

>  <RESIDUE_NAME>  (62) 
LYS   MET

>  <FRAG_NAME>  (62) 
ETAM   MSM

>  <FRAG_ATOM_NUM>  (62) 
fragi: 11  fragj: 9

>  <atom.prop.CHAIN_ID>  (62) 
A A A A A A A A A A A Z Z Z Z Z Z Z Z Z

>  <atom.prop.IS_HEAVY_ATOM>  (62) 
1 0 0 0 1 0 0 1 0 0 0 1 0 0 0 1 1 0 0 0

>  <DIFUSE_FUNC_ATOM>  (62) 
n/a

>  <FINAL_SINGLE_POINT_ENERGY>  (62) 
0

>  <NONCOV_INTER_ENERGY_QM>  (62) 
0

>  <FF_Energy>  (62) 
-5.15

>  <QM_Energy>  (62) 
-15.94

>  <source>  (62) 
ETAM_MSM

>  <Index>  (62) 
390

$$$$
ETAM-pdb1bh5-C-LYS-156:MSM-pdb1bh5-D-MET-65
     RDKit          3D

 20 18  0  0  0  0  0  0  0  0999 V2000
    1.2729    0.8157    0.0000 C   0  0  0  0  0  0  0  0  0  0  0  0
    1.3348    1.3203    0.8582 H   0  0  0  0  0  0  0  0  0  0  0  0
    1.2492    1.4535   -0.7666 H   0  0  0  0  0  0  0  0  0  0  0  0
    2.1628    0.1936   -0.0973 H   0  0  0  0  0  0  0  0  0  0  0  0
    0.0000    0.0000    0.0000 C   0  0  0  0  0  0  0  0  0  0  0  0
   -0.0054   -0.6073   -0.8167 H   0  0  0  0  0  0  0  0  0  0  0  0
   -0.0059   -0.6069    0.8164 H   0  0  0  0  0  0  0  0  0  0  0  0
   -1.2729    0.8014    0.0000 N   0  0  0  0  0  4  0  0  0  0  0  0
   -1.7852    0.5942   -0.8295 H   0  0  0  0  0  0  0  0  0  0  0  0
   -1.8099    0.5557    0.8032 H   0  0  0  0  0  0  0  0  0  0  0  0
   -1.0446    1.7712    0.0268 H   0  0  0  0  0  0  0  0  0  0  0  0
   -1.9889    4.2515    0.9128 C   0  0  0  0  0  0  0  0  0  0  0  0
   -2.6478    3.5872    1.3514 H   0  0  0  0  0  0  0  0  0  0  0  0
   -2.0290    4.0232   -0.0948 H   0  0  0  0  0  0  0  0  0  0  0  0
   -2.3958    5.2544    1.0415 H   0  0  0  0  0  0  0  0  0  0  0  0
   -0.3227    4.0272    1.5586 S   0  0  0  0  0  0  0  0  0  0  0  0
    0.6030    4.7853    0.1993 C   0  0  0  0  0  0  0  0  0  0  0  0
    1.4083    4.2302    0.0037 H   0  0  0  0  0  0  0  0  0  0  0  0
    0.0181    4.8314   -0.6079 H   0  0  0  0  0  0  0  0  0  0  0  0
    0.8822    5.7049    0.4684 H   0  0  0  0  0  0  0  0  0  0  0  0
  1  5  1  0
  5  8  1  0
  1  2  1  0
  1  3  1  0
  1  4  1  0
  5  6  1  0
  5  7  1  0
  8  9  1  0
  8 10  1  0
  8 11  1  0
 12 16  1  0
 16 17  1  0
 12 13  1  0
 12 14  1  0
 12 15  1  0
 17 18  1  0
 17 19  1  0
 17 20  1  0
M  CHG  1   8   1
M  END
>  <PDB_ID>  (63) 
pdb1bh5

>  <RESIDUE_NAME>  (63) 
LYS   MET

>  <FRAG_NAME>  (63) 
ETAM   MSM

>  <FRAG_ATOM_NUM>  (63) 
fragi: 11  fragj: 9

>  <atom.prop.CHAIN_ID>  (63) 
A A A A A A A A A A A Z Z Z Z Z Z Z Z Z

>  <atom.prop.IS_HEAVY_ATOM>  (63) 
1 0 0 0 1 0 0 1 0 0 0 1 0 0 0 1 1 0 0 0

>  <DIFUSE_FUNC_ATOM>  (63) 
n/a

>  <FINAL_SINGLE_POINT_ENERGY>  (63) 
0

>  <NONCOV_INTER_ENERGY_QM>  (63) 
0

>  <FF_Energy>  (63) 
-3.9

>  <QM_Energy>  (63) 
-10.19

>  <source>  (63) 
ETAM_MSM

>  <Index>  (63) 
395

$$$$
ETAM-pdb2c9j-B-LYS-159:MSM-pdb2c9j-B-MET-59
     RDKit          3D

 20 18  0  0  0  0  0  0  0  0999 V2000
    1.2510    0.8818   -0.0000 C   0  0  0  0  0  0  0  0  0  0  0  0
    1.1685    1.5441    0.7353 H   0  0  0  0  0  0  0  0  0  0  0  0
    1.3120    1.3397   -0.8791 H   0  0  0  0  0  0  0  0  0  0  0  0
    2.1540    0.2915    0.1562 H   0  0  0  0  0  0  0  0  0  0  0  0
    0.0000    0.0000    0.0000 C   0  0  0  0  0  0  0  0  0  0  0  0
    0.0168   -0.5814   -0.8162 H   0  0  0  0  0  0  0  0  0  0  0  0
    0.0163   -0.5819    0.8163 H   0  0  0  0  0  0  0  0  0  0  0  0
   -1.2510    0.8117    0.0000 N   0  0  0  0  0  4  0  0  0  0  0  0
   -2.0184    0.2360    0.2784 H   0  0  0  0  0  0  0  0  0  0  0  0
   -1.1515    1.5716    0.6409 H   0  0  0  0  0  0  0  0  0  0  0  0
   -1.4141    1.1669   -0.9193 H   0  0  0  0  0  0  0  0  0  0  0  0
   -1.2609   -0.1470   -4.7046 C   0  0  0  0  0  0  0  0  0  0  0  0
   -2.0851    0.4612   -4.7435 H   0  0  0  0  0  0  0  0  0  0  0  0
   -1.5879   -1.0262   -4.2906 H   0  0  0  0  0  0  0  0  0  0  0  0
   -0.9304   -0.3464   -5.7240 H   0  0  0  0  0  0  0  0  0  0  0  0
    0.0306    0.5855   -3.7168 S   0  0  0  0  0  0  0  0  0  0  0  0
    1.0925   -0.8268   -3.4383 C   0  0  0  0  0  0  0  0  0  0  0  0
    0.5384   -1.6178   -3.1742 H   0  0  0  0  0  0  0  0  0  0  0  0
    1.5954   -1.0414   -4.2772 H   0  0  0  0  0  0  0  0  0  0  0  0
    1.7434   -0.6199   -2.7059 H   0  0  0  0  0  0  0  0  0  0  0  0
  1  5  1  0
  5  8  1  0
  1  2  1  0
  1  3  1  0
  1  4  1  0
  5  6  1  0
  5  7  1  0
  8  9  1  0
  8 10  1  0
  8 11  1  0
 12 16  1  0
 16 17  1  0
 12 13  1  0
 12 14  1  0
 12 15  1  0
 17 18  1  0
 17 19  1  0
 17 20  1  0
M  CHG  1   8   1
M  END
>  <PDB_ID>  (64) 
pdb2c9j

>  <RESIDUE_NAME>  (64) 
LYS   MET

>  <FRAG_NAME>  (64) 
ETAM   MSM

>  <FRAG_ATOM_NUM>  (64) 
fragi: 11  fragj: 9

>  <atom.prop.CHAIN_ID>  (64) 
A A A A A A A A A A A Z Z Z Z Z Z Z Z Z

>  <atom.prop.IS_HEAVY_ATOM>  (64) 
1 0 0 0 1 0 0 1 0 0 0 1 0 0 0 1 1 0 0 0

>  <DIFUSE_FUNC_ATOM>  (64) 
n/a

>  <FINAL_SINGLE_POINT_ENERGY>  (64) 
0

>  <NONCOV_INTER_ENERGY_QM>  (64) 
0

>  <FF_Energy>  (64) 
-4.4

>  <QM_Energy>  (64) 
-11.36

>  <source>  (64) 
ETAM_MSM

>  <Index>  (64) 
401

$$$$
ETAM-pdb2c9j-C-LYS-159:MSM-pdb2c9j-C-MET-59
     RDKit          3D

 20 18  0  0  0  0  0  0  0  0999 V2000
    1.2411    0.8849    0.0000 C   0  0  0  0  0  0  0  0  0  0  0  0
    1.1630    1.5393    0.7462 H   0  0  0  0  0  0  0  0  0  0  0  0
    1.2885    1.3616   -0.8725 H   0  0  0  0  0  0  0  0  0  0  0  0
    2.1528    0.3030    0.1355 H   0  0  0  0  0  0  0  0  0  0  0  0
    0.0000    0.0000    0.0000 C   0  0  0  0  0  0  0  0  0  0  0  0
    0.0155   -0.5789   -0.8160 H   0  0  0  0  0  0  0  0  0  0  0  0
    0.0156   -0.5787    0.8164 H   0  0  0  0  0  0  0  0  0  0  0  0
   -1.2411    0.8174    0.0000 N   0  0  0  0  0  4  0  0  0  0  0  0
   -1.4950    1.0370    0.9423 H   0  0  0  0  0  0  0  0  0  0  0  0
   -1.0821    1.6635   -0.5083 H   0  0  0  0  0  0  0  0  0  0  0  0
   -1.9798    0.3007   -0.4328 H   0  0  0  0  0  0  0  0  0  0  0  0
   -1.6216   -0.2031   -4.4524 C   0  0  0  0  0  0  0  0  0  0  0  0
   -2.3957    0.4685   -4.5239 H   0  0  0  0  0  0  0  0  0  0  0  0
   -2.0111   -1.0102   -3.9496 H   0  0  0  0  0  0  0  0  0  0  0  0
   -1.3491   -0.5225   -5.4583 H   0  0  0  0  0  0  0  0  0  0  0  0
   -0.2446    0.4960   -3.5753 S   0  0  0  0  0  0  0  0  0  0  0  0
    0.7771   -0.9535   -3.3520 C   0  0  0  0  0  0  0  0  0  0  0  0
    0.2325   -1.7785   -3.5147 H   0  0  0  0  0  0  0  0  0  0  0  0
    1.5426   -0.9299   -3.9984 H   0  0  0  0  0  0  0  0  0  0  0  0
    1.1351   -0.9732   -2.4172 H   0  0  0  0  0  0  0  0  0  0  0  0
  1  5  1  0
  5  8  1  0
  1  2  1  0
  1  3  1  0
  1  4  1  0
  5  6  1  0
  5  7  1  0
  8  9  1  0
  8 10  1  0
  8 11  1  0
 12 16  1  0
 16 17  1  0
 12 13  1  0
 12 14  1  0
 12 15  1  0
 17 18  1  0
 17 19  1  0
 17 20  1  0
M  CHG  1   8   1
M  END
>  <PDB_ID>  (65) 
pdb2c9j

>  <RESIDUE_NAME>  (65) 
LYS   MET

>  <FRAG_NAME>  (65) 
ETAM   MSM

>  <FRAG_ATOM_NUM>  (65) 
fragi: 11  fragj: 9

>  <atom.prop.CHAIN_ID>  (65) 
A A A A A A A A A A A Z Z Z Z Z Z Z Z Z

>  <atom.prop.IS_HEAVY_ATOM>  (65) 
1 0 0 0 1 0 0 1 0 0 0 1 0 0 0 1 1 0 0 0

>  <DIFUSE_FUNC_ATOM>  (65) 
n/a

>  <FINAL_SINGLE_POINT_ENERGY>  (65) 
0

>  <NONCOV_INTER_ENERGY_QM>  (65) 
0

>  <FF_Energy>  (65) 
-3.19

>  <QM_Energy>  (65) 
-10.55

>  <source>  (65) 
ETAM_MSM

>  <Index>  (65) 
402

$$$$
ETAM-pdb2c9j-D-LYS-159:MSM-pdb2c9j-D-MET-59
     RDKit          3D

 20 18  0  0  0  0  0  0  0  0999 V2000
    1.2411    0.8783    0.0000 C   0  0  0  0  0  0  0  0  0  0  0  0
    1.1109    1.6132    0.6589 H   0  0  0  0  0  0  0  0  0  0  0  0
    1.3658    1.2531   -0.9142 H   0  0  0  0  0  0  0  0  0  0  0  0
    2.1338    0.3163    0.2744 H   0  0  0  0  0  0  0  0  0  0  0  0
    0.0000    0.0000    0.0000 C   0  0  0  0  0  0  0  0  0  0  0  0
    0.0128   -0.5802   -0.8161 H   0  0  0  0  0  0  0  0  0  0  0  0
    0.0123   -0.5803    0.8166 H   0  0  0  0  0  0  0  0  0  0  0  0
   -1.2411    0.8198   -0.0000 N   0  0  0  0  0  4  0  0  0  0  0  0
   -1.5042    1.0233   -0.9425 H   0  0  0  0  0  0  0  0  0  0  0  0
   -1.9751    0.3110    0.4501 H   0  0  0  0  0  0  0  0  0  0  0  0
   -1.0748    1.6733    0.4933 H   0  0  0  0  0  0  0  0  0  0  0  0
   -1.3172   -0.8876   -4.4599 C   0  0  0  0  0  0  0  0  0  0  0  0
   -2.1603   -0.3255   -4.6151 H   0  0  0  0  0  0  0  0  0  0  0  0
   -1.6158   -1.6805   -3.8834 H   0  0  0  0  0  0  0  0  0  0  0  0
   -0.9771   -1.2701   -5.4223 H   0  0  0  0  0  0  0  0  0  0  0  0
   -0.0515    0.0632   -3.6401 S   0  0  0  0  0  0  0  0  0  0  0  0
    0.6853    0.8435   -5.0703 C   0  0  0  0  0  0  0  0  0  0  0  0
    0.6684    0.2105   -5.8468 H   0  0  0  0  0  0  0  0  0  0  0  0
    0.1708    1.6691   -5.3067 H   0  0  0  0  0  0  0  0  0  0  0  0
    1.6342    1.0918   -4.8678 H   0  0  0  0  0  0  0  0  0  0  0  0
  1  5  1  0
  5  8  1  0
  1  2  1  0
  1  3  1  0
  1  4  1  0
  5  6  1  0
  5  7  1  0
  8  9  1  0
  8 10  1  0
  8 11  1  0
 12 16  1  0
 16 17  1  0
 12 13  1  0
 12 14  1  0
 12 15  1  0
 17 18  1  0
 17 19  1  0
 17 20  1  0
M  CHG  1   8   1
M  END
>  <PDB_ID>  (66) 
pdb2c9j

>  <RESIDUE_NAME>  (66) 
LYS   MET

>  <FRAG_NAME>  (66) 
ETAM   MSM

>  <FRAG_ATOM_NUM>  (66) 
fragi: 11  fragj: 9

>  <atom.prop.CHAIN_ID>  (66) 
A A A A A A A A A A A Z Z Z Z Z Z Z Z Z

>  <atom.prop.IS_HEAVY_ATOM>  (66) 
1 0 0 0 1 0 0 1 0 0 0 1 0 0 0 1 1 0 0 0

>  <DIFUSE_FUNC_ATOM>  (66) 
n/a

>  <FINAL_SINGLE_POINT_ENERGY>  (66) 
0

>  <NONCOV_INTER_ENERGY_QM>  (66) 
0

>  <FF_Energy>  (66) 
-4.96

>  <QM_Energy>  (66) 
-11.71

>  <source>  (66) 
ETAM_MSM

>  <Index>  (66) 
404

$$$$
ETAM-pdb2c9j-F-LYS-159:MSM-pdb2c9j-F-MET-59
     RDKit          3D

 20 18  0  0  0  0  0  0  0  0999 V2000
    1.2490    0.8843    0.0000 C   0  0  0  0  0  0  0  0  0  0  0  0
    1.2131    1.4784    0.7976 H   0  0  0  0  0  0  0  0  0  0  0  0
    1.2498    1.4260   -0.8345 H   0  0  0  0  0  0  0  0  0  0  0  0
    2.1655    0.2955    0.0397 H   0  0  0  0  0  0  0  0  0  0  0  0
    0.0000    0.0000    0.0000 C   0  0  0  0  0  0  0  0  0  0  0  0
    0.0133   -0.5767   -0.8163 H   0  0  0  0  0  0  0  0  0  0  0  0
    0.0127   -0.5772    0.8163 H   0  0  0  0  0  0  0  0  0  0  0  0
   -1.2490    0.8231    0.0000 N   0  0  0  0  0  4  0  0  0  0  0  0
   -1.1860    1.5137    0.7177 H   0  0  0  0  0  0  0  0  0  0  0  0
   -1.3491    1.2672   -0.8883 H   0  0  0  0  0  0  0  0  0  0  0  0
   -2.0329    0.2288    0.1705 H   0  0  0  0  0  0  0  0  0  0  0  0
   -1.7686    0.2277   -4.4873 C   0  0  0  0  0  0  0  0  0  0  0  0
   -2.6090    0.8207   -4.4008 H   0  0  0  0  0  0  0  0  0  0  0  0
   -2.0531   -0.6823   -4.0901 H   0  0  0  0  0  0  0  0  0  0  0  0
   -1.5537    0.0894   -5.5469 H   0  0  0  0  0  0  0  0  0  0  0  0
   -0.4021    0.9219   -3.5704 S   0  0  0  0  0  0  0  0  0  0  0  0
    0.6428   -0.5172   -3.4292 C   0  0  0  0  0  0  0  0  0  0  0  0
    0.0768   -1.3403   -3.3421 H   0  0  0  0  0  0  0  0  0  0  0  0
    1.2193   -0.5992   -4.2452 H   0  0  0  0  0  0  0  0  0  0  0  0
    1.2282   -0.4334   -2.6201 H   0  0  0  0  0  0  0  0  0  0  0  0
  1  5  1  0
  5  8  1  0
  1  2  1  0
  1  3  1  0
  1  4  1  0
  5  6  1  0
  5  7  1  0
  8  9  1  0
  8 10  1  0
  8 11  1  0
 12 16  1  0
 16 17  1  0
 12 13  1  0
 12 14  1  0
 12 15  1  0
 17 18  1  0
 17 19  1  0
 17 20  1  0
M  CHG  1   8   1
M  END
>  <PDB_ID>  (67) 
pdb2c9j

>  <RESIDUE_NAME>  (67) 
LYS   MET

>  <FRAG_NAME>  (67) 
ETAM   MSM

>  <FRAG_ATOM_NUM>  (67) 
fragi: 11  fragj: 9

>  <atom.prop.CHAIN_ID>  (67) 
A A A A A A A A A A A Z Z Z Z Z Z Z Z Z

>  <atom.prop.IS_HEAVY_ATOM>  (67) 
1 0 0 0 1 0 0 1 0 0 0 1 0 0 0 1 1 0 0 0

>  <DIFUSE_FUNC_ATOM>  (67) 
n/a

>  <FINAL_SINGLE_POINT_ENERGY>  (67) 
0

>  <NONCOV_INTER_ENERGY_QM>  (67) 
0

>  <FF_Energy>  (67) 
-4.12

>  <QM_Energy>  (67) 
-12.83

>  <source>  (67) 
ETAM_MSM

>  <Index>  (67) 
407

$$$$
ETAM-pdb2c9j-G-LYS-159:MSM-pdb2c9j-G-MET-59
     RDKit          3D

 20 18  0  0  0  0  0  0  0  0999 V2000
    1.2485    0.8675   -0.0000 C   0  0  0  0  0  0  0  0  0  0  0  0
    1.1417    1.5786    0.6850 H   0  0  0  0  0  0  0  0  0  0  0  0
    1.3573    1.2669   -0.9032 H   0  0  0  0  0  0  0  0  0  0  0  0
    2.1370    0.2820    0.2366 H   0  0  0  0  0  0  0  0  0  0  0  0
    0.0000    0.0000    0.0000 C   0  0  0  0  0  0  0  0  0  0  0  0
    0.0106   -0.5849   -0.8162 H   0  0  0  0  0  0  0  0  0  0  0  0
    0.0103   -0.5853    0.8163 H   0  0  0  0  0  0  0  0  0  0  0  0
   -1.2485    0.8142   -0.0000 N   0  0  0  0  0  4  0  0  0  0  0  0
   -1.1572    1.5591    0.6606 H   0  0  0  0  0  0  0  0  0  0  0  0
   -1.3969    1.1914   -0.9130 H   0  0  0  0  0  0  0  0  0  0  0  0
   -2.0211    0.2339    0.2529 H   0  0  0  0  0  0  0  0  0  0  0  0
   -1.1836   -0.6869   -4.5739 C   0  0  0  0  0  0  0  0  0  0  0  0
   -1.9988   -0.0728   -4.7157 H   0  0  0  0  0  0  0  0  0  0  0  0
   -1.5498   -1.4954   -4.0511 H   0  0  0  0  0  0  0  0  0  0  0  0
   -0.8446   -1.0353   -5.5495 H   0  0  0  0  0  0  0  0  0  0  0  0
    0.0944    0.1476   -3.6513 S   0  0  0  0  0  0  0  0  0  0  0  0
    1.1387   -1.2330   -3.2212 C   0  0  0  0  0  0  0  0  0  0  0  0
    1.1985   -1.3162   -2.2238 H   0  0  0  0  0  0  0  0  0  0  0  0
    0.7555   -2.0789   -3.5993 H   0  0  0  0  0  0  0  0  0  0  0  0
    2.0579   -1.0923   -3.5947 H   0  0  0  0  0  0  0  0  0  0  0  0
  1  5  1  0
  5  8  1  0
  1  2  1  0
  1  3  1  0
  1  4  1  0
  5  6  1  0
  5  7  1  0
  8  9  1  0
  8 10  1  0
  8 11  1  0
 12 16  1  0
 16 17  1  0
 12 13  1  0
 12 14  1  0
 12 15  1  0
 17 18  1  0
 17 19  1  0
 17 20  1  0
M  CHG  1   8   1
M  END
>  <PDB_ID>  (68) 
pdb2c9j

>  <RESIDUE_NAME>  (68) 
LYS   MET

>  <FRAG_NAME>  (68) 
ETAM   MSM

>  <FRAG_ATOM_NUM>  (68) 
fragi: 11  fragj: 9

>  <atom.prop.CHAIN_ID>  (68) 
A A A A A A A A A A A Z Z Z Z Z Z Z Z Z

>  <atom.prop.IS_HEAVY_ATOM>  (68) 
1 0 0 0 1 0 0 1 0 0 0 1 0 0 0 1 1 0 0 0

>  <DIFUSE_FUNC_ATOM>  (68) 
n/a

>  <FINAL_SINGLE_POINT_ENERGY>  (68) 
0

>  <NONCOV_INTER_ENERGY_QM>  (68) 
0

>  <FF_Energy>  (68) 
-3.02

>  <QM_Energy>  (68) 
-10.25

>  <source>  (68) 
ETAM_MSM

>  <Index>  (68) 
408

$$$$
ETAM-pdb2c9j-H-LYS-159:MSM-pdb2c9j-H-MET-59
     RDKit          3D

 20 18  0  0  0  0  0  0  0  0999 V2000
    1.2479    0.8707   -0.0000 C   0  0  0  0  0  0  0  0  0  0  0  0
    1.1592    1.5504    0.7228 H   0  0  0  0  0  0  0  0  0  0  0  0
    1.3200    1.3201   -0.8859 H   0  0  0  0  0  0  0  0  0  0  0  0
    2.1507    0.2854    0.1749 H   0  0  0  0  0  0  0  0  0  0  0  0
    0.0000    0.0000    0.0000 C   0  0  0  0  0  0  0  0  0  0  0  0
    0.0111   -0.5840   -0.8166 H   0  0  0  0  0  0  0  0  0  0  0  0
    0.0117   -0.5843    0.8163 H   0  0  0  0  0  0  0  0  0  0  0  0
   -1.2479    0.8140   -0.0000 N   0  0  0  0  0  4  0  0  0  0  0  0
   -1.3543    1.2560    0.8895 H   0  0  0  0  0  0  0  0  0  0  0  0
   -1.1895    1.5096   -0.7159 H   0  0  0  0  0  0  0  0  0  0  0  0
   -2.0311    0.2186   -0.1739 H   0  0  0  0  0  0  0  0  0  0  0  0
   -1.2080   -0.6591   -4.6365 C   0  0  0  0  0  0  0  0  0  0  0  0
   -1.9591    0.0127   -4.8286 H   0  0  0  0  0  0  0  0  0  0  0  0
   -1.6441   -1.4055   -4.0849 H   0  0  0  0  0  0  0  0  0  0  0  0
   -0.8708   -1.0799   -5.5837 H   0  0  0  0  0  0  0  0  0  0  0  0
    0.1249    0.1087   -3.7347 S   0  0  0  0  0  0  0  0  0  0  0  0
    0.9285   -1.3792   -3.1520 C   0  0  0  0  0  0  0  0  0  0  0  0
    1.7489   -1.1370   -2.6309 H   0  0  0  0  0  0  0  0  0  0  0  0
    0.3020   -1.8917   -2.5628 H   0  0  0  0  0  0  0  0  0  0  0  0
    1.1886   -1.9492   -3.9327 H   0  0  0  0  0  0  0  0  0  0  0  0
  1  5  1  0
  5  8  1  0
  1  2  1  0
  1  3  1  0
  1  4  1  0
  5  6  1  0
  5  7  1  0
  8  9  1  0
  8 10  1  0
  8 11  1  0
 12 16  1  0
 16 17  1  0
 12 13  1  0
 12 14  1  0
 12 15  1  0
 17 18  1  0
 17 19  1  0
 17 20  1  0
M  CHG  1   8   1
M  END
>  <PDB_ID>  (69) 
pdb2c9j

>  <RESIDUE_NAME>  (69) 
LYS   MET

>  <FRAG_NAME>  (69) 
ETAM   MSM

>  <FRAG_ATOM_NUM>  (69) 
fragi: 11  fragj: 9

>  <atom.prop.CHAIN_ID>  (69) 
A A A A A A A A A A A Z Z Z Z Z Z Z Z Z

>  <atom.prop.IS_HEAVY_ATOM>  (69) 
1 0 0 0 1 0 0 1 0 0 0 1 0 0 0 1 1 0 0 0

>  <DIFUSE_FUNC_ATOM>  (69) 
n/a

>  <FINAL_SINGLE_POINT_ENERGY>  (69) 
0

>  <NONCOV_INTER_ENERGY_QM>  (69) 
0

>  <FF_Energy>  (69) 
-3.23

>  <QM_Energy>  (69) 
-9.05

>  <source>  (69) 
ETAM_MSM

>  <Index>  (69) 
411

$$$$
ETAM-pdb2cb8-B-LYS-53:MSM-pdb2cb8-B-MET-47
     RDKit          3D

 20 18  0  0  0  0  0  0  0  0999 V2000
    1.2641    0.8694    0.0000 C   0  0  0  0  0  0  0  0  0  0  0  0
    1.1910    1.5353    0.7386 H   0  0  0  0  0  0  0  0  0  0  0  0
    1.3269    1.3379   -0.8776 H   0  0  0  0  0  0  0  0  0  0  0  0
    2.1764    0.2916    0.1477 H   0  0  0  0  0  0  0  0  0  0  0  0
    0.0000    0.0000    0.0000 C   0  0  0  0  0  0  0  0  0  0  0  0
    0.0163   -0.5901   -0.8160 H   0  0  0  0  0  0  0  0  0  0  0  0
    0.0160   -0.5898    0.8162 H   0  0  0  0  0  0  0  0  0  0  0  0
   -1.2641    0.7996   -0.0000 N   0  0  0  0  0  4  0  0  0  0  0  0
   -1.3506    1.2766    0.8726 H   0  0  0  0  0  0  0  0  0  0  0  0
   -1.2323    1.4622   -0.7456 H   0  0  0  0  0  0  0  0  0  0  0  0
   -2.0409    0.1851   -0.1265 H   0  0  0  0  0  0  0  0  0  0  0  0
   -0.7195    3.9959   -2.9248 C   0  0  0  0  0  0  0  0  0  0  0  0
    0.2595    4.1809   -2.6654 H   0  0  0  0  0  0  0  0  0  0  0  0
   -1.0467    4.8655   -3.3661 H   0  0  0  0  0  0  0  0  0  0  0  0
   -0.7316    3.2049   -3.6747 H   0  0  0  0  0  0  0  0  0  0  0  0
   -1.7076    3.6190   -1.4512 S   0  0  0  0  0  0  0  0  0  0  0  0
   -0.5886    4.1614   -0.1398 C   0  0  0  0  0  0  0  0  0  0  0  0
   -0.7415    5.1311    0.0422 H   0  0  0  0  0  0  0  0  0  0  0  0
   -0.7694    3.6302    0.6863 H   0  0  0  0  0  0  0  0  0  0  0  0
    0.3544    4.0182   -0.4340 H   0  0  0  0  0  0  0  0  0  0  0  0
  1  5  1  0
  5  8  1  0
  1  2  1  0
  1  3  1  0
  1  4  1  0
  5  6  1  0
  5  7  1  0
  8  9  1  0
  8 10  1  0
  8 11  1  0
 12 16  1  0
 16 17  1  0
 12 13  1  0
 12 14  1  0
 12 15  1  0
 17 18  1  0
 17 19  1  0
 17 20  1  0
M  CHG  1   8   1
M  END
>  <PDB_ID>  (70) 
pdb2cb8

>  <RESIDUE_NAME>  (70) 
LYS   MET

>  <FRAG_NAME>  (70) 
ETAM   MSM

>  <FRAG_ATOM_NUM>  (70) 
fragi: 11  fragj: 9

>  <atom.prop.CHAIN_ID>  (70) 
A A A A A A A A A A A Z Z Z Z Z Z Z Z Z

>  <atom.prop.IS_HEAVY_ATOM>  (70) 
1 0 0 0 1 0 0 1 0 0 0 1 0 0 0 1 1 0 0 0

>  <DIFUSE_FUNC_ATOM>  (70) 
n/a

>  <FINAL_SINGLE_POINT_ENERGY>  (70) 
0

>  <NONCOV_INTER_ENERGY_QM>  (70) 
0

>  <FF_Energy>  (70) 
-4.66

>  <QM_Energy>  (70) 
-14.67

>  <source>  (70) 
ETAM_MSM

>  <Index>  (70) 
420

$$$$
ETAM-pdb2cfo-B-LYS-437:MSM-pdb2cfo-B-MET-441
     RDKit          3D

 20 18  0  0  0  0  0  0  0  0999 V2000
    1.2109    0.9180    0.0000 C   0  0  0  0  0  0  0  0  0  0  0  0
    1.0038    1.7179    0.5448 H   0  0  0  0  0  0  0  0  0  0  0  0
    1.4213    1.1658   -0.9344 H   0  0  0  0  0  0  0  0  0  0  0  0
    2.0714    0.4087    0.4339 H   0  0  0  0  0  0  0  0  0  0  0  0
    0.0000    0.0000    0.0000 C   0  0  0  0  0  0  0  0  0  0  0  0
    0.0245   -0.5619   -0.8166 H   0  0  0  0  0  0  0  0  0  0  0  0
    0.0239   -0.5620    0.8161 H   0  0  0  0  0  0  0  0  0  0  0  0
   -1.2109    0.8325    0.0000 N   0  0  0  0  0  4  0  0  0  0  0  0
   -0.9574    1.8030    0.0166 H   0  0  0  0  0  0  0  0  0  0  0  0
   -1.7506    0.6489   -0.8253 H   0  0  0  0  0  0  0  0  0  0  0  0
   -1.7671    0.6255    0.8079 H   0  0  0  0  0  0  0  0  0  0  0  0
    0.1211    4.4394    3.3795 C   0  0  0  0  0  0  0  0  0  0  0  0
    0.3228    5.4263    3.1500 H   0  0  0  0  0  0  0  0  0  0  0  0
    1.0466    3.9793    3.3661 H   0  0  0  0  0  0  0  0  0  0  0  0
   -0.2772    4.3929    4.3931 H   0  0  0  0  0  0  0  0  0  0  0  0
   -0.9635    3.7166    2.1755 S   0  0  0  0  0  0  0  0  0  0  0  0
   -1.8943    5.1953    1.7098 C   0  0  0  0  0  0  0  0  0  0  0  0
   -2.6254    4.9373    1.0808 H   0  0  0  0  0  0  0  0  0  0  0  0
   -2.2846    5.6083    2.5310 H   0  0  0  0  0  0  0  0  0  0  0  0
   -1.2783    5.8430    1.2651 H   0  0  0  0  0  0  0  0  0  0  0  0
  1  5  1  0
  5  8  1  0
  1  2  1  0
  1  3  1  0
  1  4  1  0
  5  6  1  0
  5  7  1  0
  8  9  1  0
  8 10  1  0
  8 11  1  0
 12 16  1  0
 16 17  1  0
 12 13  1  0
 12 14  1  0
 12 15  1  0
 17 18  1  0
 17 19  1  0
 17 20  1  0
M  CHG  1   8   1
M  END
>  <PDB_ID>  (71) 
pdb2cfo

>  <RESIDUE_NAME>  (71) 
LYS   MET

>  <FRAG_NAME>  (71) 
ETAM   MSM

>  <FRAG_ATOM_NUM>  (71) 
fragi: 11  fragj: 9

>  <atom.prop.CHAIN_ID>  (71) 
A A A A A A A A A A A Z Z Z Z Z Z Z Z Z

>  <atom.prop.IS_HEAVY_ATOM>  (71) 
1 0 0 0 1 0 0 1 0 0 0 1 0 0 0 1 1 0 0 0

>  <DIFUSE_FUNC_ATOM>  (71) 
n/a

>  <FINAL_SINGLE_POINT_ENERGY>  (71) 
0

>  <NONCOV_INTER_ENERGY_QM>  (71) 
0

>  <FF_Energy>  (71) 
-5.6

>  <QM_Energy>  (71) 
-12.8

>  <source>  (71) 
ETAM_MSM

>  <Index>  (71) 
445

$$$$
ETAM-pdb2chp-A-LYS-49:MSM-pdb2chp-A-MET-147
     RDKit          3D

 20 18  0  0  0  0  0  0  0  0999 V2000
    1.3012    0.7454   -0.0000 C   0  0  0  0  0  0  0  0  0  0  0  0
    1.3994    1.2471    0.8458 H   0  0  0  0  0  0  0  0  0  0  0  0
    1.3429    1.3450   -0.7841 H   0  0  0  0  0  0  0  0  0  0  0  0
    2.1333    0.0449   -0.0700 H   0  0  0  0  0  0  0  0  0  0  0  0
    0.0000    0.0000    0.0000 C   0  0  0  0  0  0  0  0  0  0  0  0
   -0.0377   -0.6256   -0.8159 H   0  0  0  0  0  0  0  0  0  0  0  0
   -0.0380   -0.6261    0.8170 H   0  0  0  0  0  0  0  0  0  0  0  0
   -1.3012    0.8140    0.0000 N   0  0  0  0  0  4  0  0  0  0  0  0
   -1.0778    1.7523    0.2320 H   0  0  0  0  0  0  0  0  0  0  0  0
   -1.6982    0.7605   -0.9079 H   0  0  0  0  0  0  0  0  0  0  0  0
   -1.9114    0.4194    0.6758 H   0  0  0  0  0  0  0  0  0  0  0  0
   -4.8239   -0.5537   -3.7138 C   0  0  0  0  0  0  0  0  0  0  0  0
   -4.9474   -0.1482   -4.6368 H   0  0  0  0  0  0  0  0  0  0  0  0
   -5.7247   -0.9272   -3.4294 H   0  0  0  0  0  0  0  0  0  0  0  0
   -4.1014   -1.3675   -3.7749 H   0  0  0  0  0  0  0  0  0  0  0  0
   -4.2797    0.7438   -2.5260 S   0  0  0  0  0  0  0  0  0  0  0  0
   -4.2582    2.1378   -3.6094 C   0  0  0  0  0  0  0  0  0  0  0  0
   -5.0033    2.0687   -4.2818 H   0  0  0  0  0  0  0  0  0  0  0  0
   -4.3751    2.9876   -3.0857 H   0  0  0  0  0  0  0  0  0  0  0  0
   -3.3835    2.1822   -4.1027 H   0  0  0  0  0  0  0  0  0  0  0  0
  1  5  1  0
  5  8  1  0
  1  2  1  0
  1  3  1  0
  1  4  1  0
  5  6  1  0
  5  7  1  0
  8  9  1  0
  8 10  1  0
  8 11  1  0
 12 16  1  0
 16 17  1  0
 12 13  1  0
 12 14  1  0
 12 15  1  0
 17 18  1  0
 17 19  1  0
 17 20  1  0
M  CHG  1   8   1
M  END
>  <PDB_ID>  (72) 
pdb2chp

>  <RESIDUE_NAME>  (72) 
LYS   MET

>  <FRAG_NAME>  (72) 
ETAM   MSM

>  <FRAG_ATOM_NUM>  (72) 
fragi: 11  fragj: 9

>  <atom.prop.CHAIN_ID>  (72) 
A A A A A A A A A A A Z Z Z Z Z Z Z Z Z

>  <atom.prop.IS_HEAVY_ATOM>  (72) 
1 0 0 0 1 0 0 1 0 0 0 1 0 0 0 1 1 0 0 0

>  <DIFUSE_FUNC_ATOM>  (72) 
n/a

>  <FINAL_SINGLE_POINT_ENERGY>  (72) 
0

>  <NONCOV_INTER_ENERGY_QM>  (72) 
0

>  <FF_Energy>  (72) 
-4.34

>  <QM_Energy>  (72) 
-11.26

>  <source>  (72) 
ETAM_MSM

>  <Index>  (72) 
456

$$$$
ETAM-pdb2chp-B-LYS-49:MSM-pdb2chp-B-MET-147
     RDKit          3D

 20 18  0  0  0  0  0  0  0  0999 V2000
    1.3050    0.8525   -0.0000 C   0  0  0  0  0  0  0  0  0  0  0  0
    1.2967    1.4074    0.8089 H   0  0  0  0  0  0  0  0  0  0  0  0
    1.3132    1.3823   -0.8240 H   0  0  0  0  0  0  0  0  0  0  0  0
    2.1606    0.1776    0.0191 H   0  0  0  0  0  0  0  0  0  0  0  0
    0.0000    0.0000    0.0000 C   0  0  0  0  0  0  0  0  0  0  0  0
    0.0163   -0.6009   -0.8159 H   0  0  0  0  0  0  0  0  0  0  0  0
    0.0159   -0.6018    0.8162 H   0  0  0  0  0  0  0  0  0  0  0  0
   -1.3050    0.7819    0.0000 N   0  0  0  0  0  4  0  0  0  0  0  0
   -1.0906    1.7531    0.0049 H   0  0  0  0  0  0  0  0  0  0  0  0
   -1.8157    0.5430   -0.8190 H   0  0  0  0  0  0  0  0  0  0  0  0
   -1.8196    0.5354    0.8146 H   0  0  0  0  0  0  0  0  0  0  0  0
   -4.5588   -1.0790   -3.7177 C   0  0  0  0  0  0  0  0  0  0  0  0
   -4.7003   -0.7606   -4.6463 H   0  0  0  0  0  0  0  0  0  0  0  0
   -5.3774   -1.5173   -3.3678 H   0  0  0  0  0  0  0  0  0  0  0  0
   -3.7564   -1.8166   -3.7302 H   0  0  0  0  0  0  0  0  0  0  0  0
   -4.0433    0.3208   -2.6158 S   0  0  0  0  0  0  0  0  0  0  0  0
   -4.4503    1.5726   -3.7302 C   0  0  0  0  0  0  0  0  0  0  0  0
   -4.8099    1.1921   -4.5973 H   0  0  0  0  0  0  0  0  0  0  0  0
   -5.1593    2.1886   -3.3504 H   0  0  0  0  0  0  0  0  0  0  0  0
   -3.6433    2.1406   -3.9577 H   0  0  0  0  0  0  0  0  0  0  0  0
  1  5  1  0
  5  8  1  0
  1  2  1  0
  1  3  1  0
  1  4  1  0
  5  6  1  0
  5  7  1  0
  8  9  1  0
  8 10  1  0
  8 11  1  0
 12 16  1  0
 16 17  1  0
 12 13  1  0
 12 14  1  0
 12 15  1  0
 17 18  1  0
 17 19  1  0
 17 20  1  0
M  CHG  1   8   1
M  END
>  <PDB_ID>  (73) 
pdb2chp

>  <RESIDUE_NAME>  (73) 
LYS   MET

>  <FRAG_NAME>  (73) 
ETAM   MSM

>  <FRAG_ATOM_NUM>  (73) 
fragi: 11  fragj: 9

>  <atom.prop.CHAIN_ID>  (73) 
A A A A A A A A A A A Z Z Z Z Z Z Z Z Z

>  <atom.prop.IS_HEAVY_ATOM>  (73) 
1 0 0 0 1 0 0 1 0 0 0 1 0 0 0 1 1 0 0 0

>  <DIFUSE_FUNC_ATOM>  (73) 
n/a

>  <FINAL_SINGLE_POINT_ENERGY>  (73) 
0

>  <NONCOV_INTER_ENERGY_QM>  (73) 
0

>  <FF_Energy>  (73) 
-4.75

>  <QM_Energy>  (73) 
-11.86

>  <source>  (73) 
ETAM_MSM

>  <Index>  (73) 
461

$$$$
ETAM-pdb1bw9-A-LYS-66:MSM-pdb1bw9-A-MET-63
     RDKit          3D

 20 18  0  0  0  0  0  0  0  0999 V2000
    1.2605    0.8825   -0.0000 C   0  0  0  0  0  0  0  0  0  0  0  0
    1.3345    1.3129    0.8987 H   0  0  0  0  0  0  0  0  0  0  0  0
    1.1439    1.5857   -0.7008 H   0  0  0  0  0  0  0  0  0  0  0  0
    2.1721    0.3208   -0.2038 H   0  0  0  0  0  0  0  0  0  0  0  0
    0.0000    0.0000    0.0000 C   0  0  0  0  0  0  0  0  0  0  0  0
    0.0204   -0.5846   -0.8164 H   0  0  0  0  0  0  0  0  0  0  0  0
    0.0206   -0.5840    0.8160 H   0  0  0  0  0  0  0  0  0  0  0  0
   -1.2605    0.8014    0.0000 N   0  0  0  0  0  4  0  0  0  0  0  0
   -1.1099    1.6514   -0.5026 H   0  0  0  0  0  0  0  0  0  0  0  0
   -1.9859    0.2734   -0.4397 H   0  0  0  0  0  0  0  0  0  0  0  0
   -1.5185    1.0084    0.9428 H   0  0  0  0  0  0  0  0  0  0  0  0
   -0.4788    0.4823    5.2631 C   0  0  0  0  0  0  0  0  0  0  0  0
   -1.2114   -0.2311    5.3505 H   0  0  0  0  0  0  0  0  0  0  0  0
   -0.6932    1.1826    5.9825 H   0  0  0  0  0  0  0  0  0  0  0  0
    0.4866    0.0281    5.4862 H   0  0  0  0  0  0  0  0  0  0  0  0
   -0.5602    1.2578    3.5958 S   0  0  0  0  0  0  0  0  0  0  0  0
    0.8124    2.4524    3.7052 C   0  0  0  0  0  0  0  0  0  0  0  0
    1.1196    2.5018    4.6514 H   0  0  0  0  0  0  0  0  0  0  0  0
    1.5549    2.1409    3.1197 H   0  0  0  0  0  0  0  0  0  0  0  0
    0.4857    3.3436    3.4027 H   0  0  0  0  0  0  0  0  0  0  0  0
  1  5  1  0
  5  8  1  0
  1  2  1  0
  1  3  1  0
  1  4  1  0
  5  6  1  0
  5  7  1  0
  8  9  1  0
  8 10  1  0
  8 11  1  0
 12 16  1  0
 16 17  1  0
 12 13  1  0
 12 14  1  0
 12 15  1  0
 17 18  1  0
 17 19  1  0
 17 20  1  0
M  CHG  1   8   1
M  END
>  <PDB_ID>  (74) 
pdb1bw9

>  <RESIDUE_NAME>  (74) 
LYS   MET

>  <FRAG_NAME>  (74) 
ETAM   MSM

>  <FRAG_ATOM_NUM>  (74) 
fragi: 11  fragj: 9

>  <atom.prop.CHAIN_ID>  (74) 
A A A A A A A A A A A Z Z Z Z Z Z Z Z Z

>  <atom.prop.IS_HEAVY_ATOM>  (74) 
1 0 0 0 1 0 0 1 0 0 0 1 0 0 0 1 1 0 0 0

>  <DIFUSE_FUNC_ATOM>  (74) 
n/a

>  <FINAL_SINGLE_POINT_ENERGY>  (74) 
0

>  <NONCOV_INTER_ENERGY_QM>  (74) 
0

>  <FF_Energy>  (74) 
-5.67

>  <QM_Energy>  (74) 
-12.68

>  <source>  (74) 
ETAM_MSM

>  <Index>  (74) 
465

$$$$
ETAM-pdb1buc-A-LYS-237:MSM-pdb1buc-A-MET-241
     RDKit          3D

 20 18  0  0  0  0  0  0  0  0999 V2000
    1.2691    0.8603   -0.0000 C   0  0  0  0  0  0  0  0  0  0  0  0
    1.2075    1.5148   -0.7502 H   0  0  0  0  0  0  0  0  0  0  0  0
    2.0553    0.2623   -0.1357 H   0  0  0  0  0  0  0  0  0  0  0  0
    1.4080    1.4119    0.9299 H   0  0  0  0  0  0  0  0  0  0  0  0
    0.0000    0.0000    0.0000 C   0  0  0  0  0  0  0  0  0  0  0  0
    0.0187   -0.5982   -0.8164 H   0  0  0  0  0  0  0  0  0  0  0  0
    0.0186   -0.5978    0.8159 H   0  0  0  0  0  0  0  0  0  0  0  0
   -1.2691    0.7842   -0.0000 N   0  0  0  0  0  4  0  0  0  0  0  0
   -2.0232    0.1905   -0.2777 H   0  0  0  0  0  0  0  0  0  0  0  0
   -1.4388    1.1361    0.9192 H   0  0  0  0  0  0  0  0  0  0  0  0
   -1.1866    1.5447   -0.6420 H   0  0  0  0  0  0  0  0  0  0  0  0
    1.4659   -1.9816    4.0989 C   0  0  0  0  0  0  0  0  0  0  0  0
    0.8922   -2.2022    4.9343 H   0  0  0  0  0  0  0  0  0  0  0  0
    2.0490   -1.1797    4.4035 H   0  0  0  0  0  0  0  0  0  0  0  0
    2.1284   -2.8276    3.9159 H   0  0  0  0  0  0  0  0  0  0  0  0
    0.4263   -1.5248    2.7109 S   0  0  0  0  0  0  0  0  0  0  0  0
   -0.5127   -3.0697    2.5260 C   0  0  0  0  0  0  0  0  0  0  0  0
   -0.6243   -3.2654    1.5548 H   0  0  0  0  0  0  0  0  0  0  0  0
   -0.0092   -3.8080    2.9672 H   0  0  0  0  0  0  0  0  0  0  0  0
   -1.4047   -2.9583    2.9570 H   0  0  0  0  0  0  0  0  0  0  0  0
  1  5  1  0
  5  8  1  0
  1  2  1  0
  1  3  1  0
  1  4  1  0
  5  6  1  0
  5  7  1  0
  8  9  1  0
  8 10  1  0
  8 11  1  0
 12 16  1  0
 16 17  1  0
 12 13  1  0
 12 14  1  0
 12 15  1  0
 17 18  1  0
 17 19  1  0
 17 20  1  0
M  CHG  1   8   1
M  END
>  <PDB_ID>  (75) 
pdb1buc

>  <RESIDUE_NAME>  (75) 
LYS   MET

>  <FRAG_NAME>  (75) 
ETAM   MSM

>  <FRAG_ATOM_NUM>  (75) 
fragi: 11  fragj: 9

>  <atom.prop.CHAIN_ID>  (75) 
A A A A A A A A A A A Z Z Z Z Z Z Z Z Z

>  <atom.prop.IS_HEAVY_ATOM>  (75) 
1 0 0 0 1 0 0 1 0 0 0 1 0 0 0 1 1 0 0 0

>  <DIFUSE_FUNC_ATOM>  (75) 
n/a

>  <FINAL_SINGLE_POINT_ENERGY>  (75) 
0

>  <NONCOV_INTER_ENERGY_QM>  (75) 
0

>  <FF_Energy>  (75) 
17.56

>  <QM_Energy>  (75) 
-5.54

>  <source>  (75) 
ETAM_MSM

>  <Index>  (75) 
473

$$$$
ETAM-pdb1bvu-C-LYS-104:MSM-pdb1bvu-C-MET-89
     RDKit          3D

 20 18  0  0  0  0  0  0  0  0999 V2000
    1.2668    0.8586    0.0000 C   0  0  0  0  0  0  0  0  0  0  0  0
    1.0134    1.7782    0.3229 H   0  0  0  0  0  0  0  0  0  0  0  0
    1.5850    0.9328   -0.9527 H   0  0  0  0  0  0  0  0  0  0  0  0
    2.0676    0.4614    0.6237 H   0  0  0  0  0  0  0  0  0  0  0  0
    0.0000    0.0000    0.0000 C   0  0  0  0  0  0  0  0  0  0  0  0
    0.0000   -0.5836   -0.8163 H   0  0  0  0  0  0  0  0  0  0  0  0
    0.0001   -0.5837    0.8166 H   0  0  0  0  0  0  0  0  0  0  0  0
   -1.2668    0.8295   -0.0000 N   0  0  0  0  0  4  0  0  0  0  0  0
   -1.0395    1.7586   -0.2768 H   0  0  0  0  0  0  0  0  0  0  0  0
   -1.9114    0.4261   -0.6419 H   0  0  0  0  0  0  0  0  0  0  0  0
   -1.6483    0.8274    0.9190 H   0  0  0  0  0  0  0  0  0  0  0  0
   -0.0516    4.4193   -1.1548 C   0  0  0  0  0  0  0  0  0  0  0  0
    0.4861    3.6124   -1.5414 H   0  0  0  0  0  0  0  0  0  0  0  0
    0.1817    4.3881   -0.1375 H   0  0  0  0  0  0  0  0  0  0  0  0
    0.3757    5.3329   -1.5680 H   0  0  0  0  0  0  0  0  0  0  0  0
   -1.8753    4.1184   -1.3830 S   0  0  0  0  0  0  0  0  0  0  0  0
   -2.5432    5.6010   -0.9865 C   0  0  0  0  0  0  0  0  0  0  0  0
   -3.4494    5.5136   -0.5213 H   0  0  0  0  0  0  0  0  0  0  0  0
   -1.9511    6.1437   -0.3541 H   0  0  0  0  0  0  0  0  0  0  0  0
   -2.7011    6.1944   -1.8044 H   0  0  0  0  0  0  0  0  0  0  0  0
  1  5  1  0
  5  8  1  0
  1  2  1  0
  1  3  1  0
  1  4  1  0
  5  6  1  0
  5  7  1  0
  8  9  1  0
  8 10  1  0
  8 11  1  0
 12 16  1  0
 16 17  1  0
 12 13  1  0
 12 14  1  0
 12 15  1  0
 17 18  1  0
 17 19  1  0
 17 20  1  0
M  CHG  1   8   1
M  END
>  <PDB_ID>  (76) 
pdb1bvu

>  <RESIDUE_NAME>  (76) 
LYS   MET

>  <FRAG_NAME>  (76) 
ETAM   MSM

>  <FRAG_ATOM_NUM>  (76) 
fragi: 11  fragj: 9

>  <atom.prop.CHAIN_ID>  (76) 
A A A A A A A A A A A Z Z Z Z Z Z Z Z Z

>  <atom.prop.IS_HEAVY_ATOM>  (76) 
1 0 0 0 1 0 0 1 0 0 0 1 0 0 0 1 1 0 0 0

>  <DIFUSE_FUNC_ATOM>  (76) 
n/a

>  <FINAL_SINGLE_POINT_ENERGY>  (76) 
0

>  <NONCOV_INTER_ENERGY_QM>  (76) 
0

>  <FF_Energy>  (76) 
-4.87

>  <QM_Energy>  (76) 
-11.09

>  <source>  (76) 
ETAM_MSM

>  <Index>  (76) 
475

$$$$
ETAM-pdb1bvu-C-LYS-311:MSM-pdb1bvu-C-MET-207
     RDKit          3D

 20 18  0  0  0  0  0  0  0  0999 V2000
    1.2622    0.8602    0.0000 C   0  0  0  0  0  0  0  0  0  0  0  0
    1.8761    0.5175   -0.7011 H   0  0  0  0  0  0  0  0  0  0  0  0
    1.6840    0.7990    0.8962 H   0  0  0  0  0  0  0  0  0  0  0  0
    1.0259    1.9029   -0.2127 H   0  0  0  0  0  0  0  0  0  0  0  0
    0.0000    0.0000    0.0000 C   0  0  0  0  0  0  0  0  0  0  0  0
    0.0012   -0.5829   -0.8164 H   0  0  0  0  0  0  0  0  0  0  0  0
    0.0015   -0.5831    0.8166 H   0  0  0  0  0  0  0  0  0  0  0  0
   -1.2622    0.8284   -0.0000 N   0  0  0  0  0  4  0  0  0  0  0  0
   -1.6794    0.7773    0.9035 H   0  0  0  0  0  0  0  0  0  0  0  0
   -1.0266    1.7723   -0.2165 H   0  0  0  0  0  0  0  0  0  0  0  0
   -1.8850    0.4642   -0.6872 H   0  0  0  0  0  0  0  0  0  0  0  0
    6.1184   -0.3623   -0.7401 C   0  0  0  0  0  0  0  0  0  0  0  0
    6.5947    0.4147   -0.2861 H   0  0  0  0  0  0  0  0  0  0  0  0
    6.6613   -0.5897   -1.5714 H   0  0  0  0  0  0  0  0  0  0  0  0
    6.0869   -1.2212   -0.0696 H   0  0  0  0  0  0  0  0  0  0  0  0
    4.4264    0.1598   -1.2358 S   0  0  0  0  0  0  0  0  0  0  0  0
    4.0320    1.3718    0.0448 C   0  0  0  0  0  0  0  0  0  0  0  0
    3.3710    0.9750    0.6794 H   0  0  0  0  0  0  0  0  0  0  0  0
    4.8670    1.6144    0.5347 H   0  0  0  0  0  0  0  0  0  0  0  0
    3.6432    2.1865   -0.3830 H   0  0  0  0  0  0  0  0  0  0  0  0
  1  5  1  0
  5  8  1  0
  1  2  1  0
  1  3  1  0
  1  4  1  0
  5  6  1  0
  5  7  1  0
  8  9  1  0
  8 10  1  0
  8 11  1  0
 12 16  1  0
 16 17  1  0
 12 13  1  0
 12 14  1  0
 12 15  1  0
 17 18  1  0
 17 19  1  0
 17 20  1  0
M  CHG  1   8   1
M  END
>  <PDB_ID>  (77) 
pdb1bvu

>  <RESIDUE_NAME>  (77) 
LYS   MET

>  <FRAG_NAME>  (77) 
ETAM   MSM

>  <FRAG_ATOM_NUM>  (77) 
fragi: 11  fragj: 9

>  <atom.prop.CHAIN_ID>  (77) 
A A A A A A A A A A A Z Z Z Z Z Z Z Z Z

>  <atom.prop.IS_HEAVY_ATOM>  (77) 
1 0 0 0 1 0 0 1 0 0 0 1 0 0 0 1 1 0 0 0

>  <DIFUSE_FUNC_ATOM>  (77) 
n/a

>  <FINAL_SINGLE_POINT_ENERGY>  (77) 
0

>  <NONCOV_INTER_ENERGY_QM>  (77) 
0

>  <FF_Energy>  (77) 
17.75

>  <QM_Energy>  (77) 
2.95

>  <source>  (77) 
ETAM_MSM

>  <Index>  (77) 
476

$$$$
ETAM-pdb2chp-D-LYS-49:MSM-pdb2chp-D-MET-147
     RDKit          3D

 20 18  0  0  0  0  0  0  0  0999 V2000
    1.2462    0.8964   -0.0000 C   0  0  0  0  0  0  0  0  0  0  0  0
    1.2189    1.4506    0.8274 H   0  0  0  0  0  0  0  0  0  0  0  0
    1.1972    1.4801   -0.8059 H   0  0  0  0  0  0  0  0  0  0  0  0
    2.1588    0.3008   -0.0222 H   0  0  0  0  0  0  0  0  0  0  0  0
    0.0000    0.0000    0.0000 C   0  0  0  0  0  0  0  0  0  0  0  0
    0.0418   -0.5915   -0.8161 H   0  0  0  0  0  0  0  0  0  0  0  0
    0.0414   -0.5925    0.8163 H   0  0  0  0  0  0  0  0  0  0  0  0
   -1.2462    0.7637    0.0000 N   0  0  0  0  0  4  0  0  0  0  0  0
   -1.1690    1.5494   -0.6202 H   0  0  0  0  0  0  0  0  0  0  0  0
   -2.0063    0.1828   -0.3056 H   0  0  0  0  0  0  0  0  0  0  0  0
   -1.4457    1.0990    0.9259 H   0  0  0  0  0  0  0  0  0  0  0  0
   -4.4032   -1.2271   -3.6838 C   0  0  0  0  0  0  0  0  0  0  0  0
   -4.4163   -0.8813   -4.6413 H   0  0  0  0  0  0  0  0  0  0  0  0
   -5.3088   -1.6604   -3.5169 H   0  0  0  0  0  0  0  0  0  0  0  0
   -3.6277   -1.9882   -3.5968 H   0  0  0  0  0  0  0  0  0  0  0  0
   -4.1160    0.1211   -2.5211 S   0  0  0  0  0  0  0  0  0  0  0  0
   -4.5312    1.4748   -3.5943 C   0  0  0  0  0  0  0  0  0  0  0  0
   -4.9385    1.1274   -4.4430 H   0  0  0  0  0  0  0  0  0  0  0  0
   -5.1901    2.0820   -3.1410 H   0  0  0  0  0  0  0  0  0  0  0  0
   -3.7062    1.9995   -3.8195 H   0  0  0  0  0  0  0  0  0  0  0  0
  1  5  1  0
  5  8  1  0
  1  2  1  0
  1  3  1  0
  1  4  1  0
  5  6  1  0
  5  7  1  0
  8  9  1  0
  8 10  1  0
  8 11  1  0
 12 16  1  0
 16 17  1  0
 12 13  1  0
 12 14  1  0
 12 15  1  0
 17 18  1  0
 17 19  1  0
 17 20  1  0
M  CHG  1   8   1
M  END
>  <PDB_ID>  (78) 
pdb2chp

>  <RESIDUE_NAME>  (78) 
LYS   MET

>  <FRAG_NAME>  (78) 
ETAM   MSM

>  <FRAG_ATOM_NUM>  (78) 
fragi: 11  fragj: 9

>  <atom.prop.CHAIN_ID>  (78) 
A A A A A A A A A A A Z Z Z Z Z Z Z Z Z

>  <atom.prop.IS_HEAVY_ATOM>  (78) 
1 0 0 0 1 0 0 1 0 0 0 1 0 0 0 1 1 0 0 0

>  <DIFUSE_FUNC_ATOM>  (78) 
n/a

>  <FINAL_SINGLE_POINT_ENERGY>  (78) 
0

>  <NONCOV_INTER_ENERGY_QM>  (78) 
0

>  <FF_Energy>  (78) 
-4.53

>  <QM_Energy>  (78) 
-10.92

>  <source>  (78) 
ETAM_MSM

>  <Index>  (78) 
482

$$$$
ETAM-pdb2ch1-A-LYS-19:MSM-pdb2ch1-A-MET-336
     RDKit          3D

 20 18  0  0  0  0  0  0  0  0999 V2000
    1.2411    0.9127    0.0000 C   0  0  0  0  0  0  0  0  0  0  0  0
    2.0345    0.3487    0.2325 H   0  0  0  0  0  0  0  0  0  0  0  0
    1.1087    1.6071    0.7082 H   0  0  0  0  0  0  0  0  0  0  0  0
    1.4126    1.4010   -0.9593 H   0  0  0  0  0  0  0  0  0  0  0  0
    0.0000    0.0000    0.0000 C   0  0  0  0  0  0  0  0  0  0  0  0
    0.0346   -0.5749   -0.8162 H   0  0  0  0  0  0  0  0  0  0  0  0
    0.0348   -0.5754    0.8168 H   0  0  0  0  0  0  0  0  0  0  0  0
   -1.2411    0.7977    0.0000 N   0  0  0  0  0  4  0  0  0  0  0  0
   -1.5753    0.9029    0.9384 H   0  0  0  0  0  0  0  0  0  0  0  0
   -1.0618    1.7026   -0.3901 H   0  0  0  0  0  0  0  0  0  0  0  0
   -1.9405    0.3353   -0.5490 H   0  0  0  0  0  0  0  0  0  0  0  0
   -1.6974    4.7022    2.1507 C   0  0  0  0  0  0  0  0  0  0  0  0
   -1.8580    3.8486    2.7076 H   0  0  0  0  0  0  0  0  0  0  0  0
   -2.5519    4.8070    1.5820 H   0  0  0  0  0  0  0  0  0  0  0  0
   -1.6199    5.5523    2.8284 H   0  0  0  0  0  0  0  0  0  0  0  0
   -0.2414    4.4558    1.0420 S   0  0  0  0  0  0  0  0  0  0  0  0
    0.9574    3.9090    2.3272 C   0  0  0  0  0  0  0  0  0  0  0  0
    0.8137    4.4594    3.1408 H   0  0  0  0  0  0  0  0  0  0  0  0
    0.7909    2.9491    2.5192 H   0  0  0  0  0  0  0  0  0  0  0  0
    1.8753    4.0405    1.9726 H   0  0  0  0  0  0  0  0  0  0  0  0
  1  5  1  0
  5  8  1  0
  1  2  1  0
  1  3  1  0
  1  4  1  0
  5  6  1  0
  5  7  1  0
  8  9  1  0
  8 10  1  0
  8 11  1  0
 12 16  1  0
 16 17  1  0
 12 13  1  0
 12 14  1  0
 12 15  1  0
 17 18  1  0
 17 19  1  0
 17 20  1  0
M  CHG  1   8   1
M  END
>  <PDB_ID>  (79) 
pdb2ch1

>  <RESIDUE_NAME>  (79) 
LYS   MET

>  <FRAG_NAME>  (79) 
ETAM   MSM

>  <FRAG_ATOM_NUM>  (79) 
fragi: 11  fragj: 9

>  <atom.prop.CHAIN_ID>  (79) 
A A A A A A A A A A A Z Z Z Z Z Z Z Z Z

>  <atom.prop.IS_HEAVY_ATOM>  (79) 
1 0 0 0 1 0 0 1 0 0 0 1 0 0 0 1 1 0 0 0

>  <DIFUSE_FUNC_ATOM>  (79) 
n/a

>  <FINAL_SINGLE_POINT_ENERGY>  (79) 
0

>  <NONCOV_INTER_ENERGY_QM>  (79) 
0

>  <FF_Energy>  (79) 
-3.58

>  <QM_Energy>  (79) 
-9.3

>  <source>  (79) 
ETAM_MSM

>  <Index>  (79) 
504

$$$$
ETAM-pdb1c3d-A-LYS-91:MSM-pdb1c3d-A-MET-281
     RDKit          3D

 20 18  0  0  0  0  0  0  0  0999 V2000
    1.2616    0.8469   -0.0000 C   0  0  0  0  0  0  0  0  0  0  0  0
    2.0492    0.2495    0.1952 H   0  0  0  0  0  0  0  0  0  0  0  0
    1.1907    1.5271    0.7404 H   0  0  0  0  0  0  0  0  0  0  0  0
    1.4588    1.3761   -0.9323 H   0  0  0  0  0  0  0  0  0  0  0  0
    0.0000    0.0000    0.0000 C   0  0  0  0  0  0  0  0  0  0  0  0
    0.0090   -0.5974   -0.8160 H   0  0  0  0  0  0  0  0  0  0  0  0
    0.0079   -0.5981    0.8162 H   0  0  0  0  0  0  0  0  0  0  0  0
   -1.2616    0.7971   -0.0000 N   0  0  0  0  0  4  0  0  0  0  0  0
   -1.9362    0.3463   -0.5819 H   0  0  0  0  0  0  0  0  0  0  0  0
   -1.6111    0.8603    0.9333 H   0  0  0  0  0  0  0  0  0  0  0  0
   -1.0730    1.7134   -0.3514 H   0  0  0  0  0  0  0  0  0  0  0  0
   -2.0787    1.0055    5.0267 C   0  0  0  0  0  0  0  0  0  0  0  0
   -1.3385    0.2962    5.1450 H   0  0  0  0  0  0  0  0  0  0  0  0
   -2.9495    0.4590    4.9355 H   0  0  0  0  0  0  0  0  0  0  0  0
   -2.1393    1.5841    5.9485 H   0  0  0  0  0  0  0  0  0  0  0  0
   -1.7843    1.9923    3.5271 S   0  0  0  0  0  0  0  0  0  0  0  0
   -3.0193    3.2899    3.7037 C   0  0  0  0  0  0  0  0  0  0  0  0
   -3.1773    3.4668    4.6745 H   0  0  0  0  0  0  0  0  0  0  0  0
   -2.6905    4.1231    3.2609 H   0  0  0  0  0  0  0  0  0  0  0  0
   -3.8723    2.9956    3.2739 H   0  0  0  0  0  0  0  0  0  0  0  0
  1  5  1  0
  5  8  1  0
  1  2  1  0
  1  3  1  0
  1  4  1  0
  5  6  1  0
  5  7  1  0
  8  9  1  0
  8 10  1  0
  8 11  1  0
 12 16  1  0
 16 17  1  0
 12 13  1  0
 12 14  1  0
 12 15  1  0
 17 18  1  0
 17 19  1  0
 17 20  1  0
M  CHG  1   8   1
M  END
>  <PDB_ID>  (80) 
pdb1c3d

>  <RESIDUE_NAME>  (80) 
LYS   MET

>  <FRAG_NAME>  (80) 
ETAM   MSM

>  <FRAG_ATOM_NUM>  (80) 
fragi: 11  fragj: 9

>  <atom.prop.CHAIN_ID>  (80) 
A A A A A A A A A A A Z Z Z Z Z Z Z Z Z

>  <atom.prop.IS_HEAVY_ATOM>  (80) 
1 0 0 0 1 0 0 1 0 0 0 1 0 0 0 1 1 0 0 0

>  <DIFUSE_FUNC_ATOM>  (80) 
n/a

>  <FINAL_SINGLE_POINT_ENERGY>  (80) 
0

>  <NONCOV_INTER_ENERGY_QM>  (80) 
0

>  <FF_Energy>  (80) 
-5.05

>  <QM_Energy>  (80) 
-13.28

>  <source>  (80) 
ETAM_MSM

>  <Index>  (80) 
516

$$$$
ETAM-pdb2cu0-A-LYS-292:MSM-pdb2cu0-A-MET-355
     RDKit          3D

 20 18  0  0  0  0  0  0  0  0999 V2000
    1.2428    0.8753    0.0000 C   0  0  0  0  0  0  0  0  0  0  0  0
    1.2361    1.4399   -0.8183 H   0  0  0  0  0  0  0  0  0  0  0  0
    2.0459    0.2892    0.0121 H   0  0  0  0  0  0  0  0  0  0  0  0
    1.2738    1.5280    0.8724 H   0  0  0  0  0  0  0  0  0  0  0  0
    0.0000    0.0000    0.0000 C   0  0  0  0  0  0  0  0  0  0  0  0
    0.0084   -0.5783   -0.8158 H   0  0  0  0  0  0  0  0  0  0  0  0
    0.0081   -0.5784    0.8166 H   0  0  0  0  0  0  0  0  0  0  0  0
   -1.2428    0.8266   -0.0000 N   0  0  0  0  0  4  0  0  0  0  0  0
   -1.1577    1.5495   -0.6836 H   0  0  0  0  0  0  0  0  0  0  0  0
   -2.0247    0.2461   -0.2200 H   0  0  0  0  0  0  0  0  0  0  0  0
   -1.3692    1.2323    0.9045 H   0  0  0  0  0  0  0  0  0  0  0  0
    0.9171    2.7715   -4.5658 C   0  0  0  0  0  0  0  0  0  0  0  0
    0.2820    3.4918   -4.9284 H   0  0  0  0  0  0  0  0  0  0  0  0
    1.3051    2.3078   -5.3955 H   0  0  0  0  0  0  0  0  0  0  0  0
    1.7298    3.2633   -4.0313 H   0  0  0  0  0  0  0  0  0  0  0  0
    0.0209    1.5910   -3.5380 S   0  0  0  0  0  0  0  0  0  0  0  0
    1.0164    0.1373   -3.8051 C   0  0  0  0  0  0  0  0  0  0  0  0
    1.9108    0.2520   -3.3667 H   0  0  0  0  0  0  0  0  0  0  0  0
    0.5594   -0.6643   -3.4139 H   0  0  0  0  0  0  0  0  0  0  0  0
    1.1496   -0.0081   -4.7878 H   0  0  0  0  0  0  0  0  0  0  0  0
  1  5  1  0
  5  8  1  0
  1  2  1  0
  1  3  1  0
  1  4  1  0
  5  6  1  0
  5  7  1  0
  8  9  1  0
  8 10  1  0
  8 11  1  0
 12 16  1  0
 16 17  1  0
 12 13  1  0
 12 14  1  0
 12 15  1  0
 17 18  1  0
 17 19  1  0
 17 20  1  0
M  CHG  1   8   1
M  END
>  <PDB_ID>  (81) 
pdb2cu0

>  <RESIDUE_NAME>  (81) 
LYS   MET

>  <FRAG_NAME>  (81) 
ETAM   MSM

>  <FRAG_ATOM_NUM>  (81) 
fragi: 11  fragj: 9

>  <atom.prop.CHAIN_ID>  (81) 
A A A A A A A A A A A Z Z Z Z Z Z Z Z Z

>  <atom.prop.IS_HEAVY_ATOM>  (81) 
1 0 0 0 1 0 0 1 0 0 0 1 0 0 0 1 1 0 0 0

>  <DIFUSE_FUNC_ATOM>  (81) 
n/a

>  <FINAL_SINGLE_POINT_ENERGY>  (81) 
0

>  <NONCOV_INTER_ENERGY_QM>  (81) 
0

>  <FF_Energy>  (81) 
-5.27

>  <QM_Energy>  (81) 
-11.24

>  <source>  (81) 
ETAM_MSM

>  <Index>  (81) 
517

$$$$
ETAM-pdb2cvi-A-LYS-59:MSM-pdb2cvi-A-MET-25
     RDKit          3D

 20 18  0  0  0  0  0  0  0  0999 V2000
    1.2392    0.8639   -0.0000 C   0  0  0  0  0  0  0  0  0  0  0  0
    1.3063    1.3313    0.8858 H   0  0  0  0  0  0  0  0  0  0  0  0
    1.1516    1.5529   -0.7245 H   0  0  0  0  0  0  0  0  0  0  0  0
    2.1602    0.3047   -0.1646 H   0  0  0  0  0  0  0  0  0  0  0  0
    0.0000    0.0000    0.0000 C   0  0  0  0  0  0  0  0  0  0  0  0
   -0.0120   -0.5695   -0.8158 H   0  0  0  0  0  0  0  0  0  0  0  0
   -0.0123   -0.5694    0.8163 H   0  0  0  0  0  0  0  0  0  0  0  0
   -1.2392    0.8654   -0.0000 N   0  0  0  0  0  4  0  0  0  0  0  0
   -1.8206    0.5909   -0.7599 H   0  0  0  0  0  0  0  0  0  0  0  0
   -1.7185    0.7376    0.8630 H   0  0  0  0  0  0  0  0  0  0  0  0
   -0.9646    1.8168   -0.1033 H   0  0  0  0  0  0  0  0  0  0  0  0
   -1.2500   -1.4144   -3.3077 C   0  0  0  0  0  0  0  0  0  0  0  0
   -1.5663   -1.5763   -2.3366 H   0  0  0  0  0  0  0  0  0  0  0  0
   -1.5118   -2.2814   -3.8080 H   0  0  0  0  0  0  0  0  0  0  0  0
   -1.8215   -0.5854   -3.7253 H   0  0  0  0  0  0  0  0  0  0  0  0
    0.5216   -1.1649   -3.3618 S   0  0  0  0  0  0  0  0  0  0  0  0
    1.0813   -2.7378   -2.6308 C   0  0  0  0  0  0  0  0  0  0  0  0
    1.9781   -2.5989   -2.2207 H   0  0  0  0  0  0  0  0  0  0  0  0
    0.4253   -3.0193   -1.9361 H   0  0  0  0  0  0  0  0  0  0  0  0
    1.1351   -3.4242   -3.3502 H   0  0  0  0  0  0  0  0  0  0  0  0
  1  5  1  0
  5  8  1  0
  1  2  1  0
  1  3  1  0
  1  4  1  0
  5  6  1  0
  5  7  1  0
  8  9  1  0
  8 10  1  0
  8 11  1  0
 12 16  1  0
 16 17  1  0
 12 13  1  0
 12 14  1  0
 12 15  1  0
 17 18  1  0
 17 19  1  0
 17 20  1  0
M  CHG  1   8   1
M  END
>  <PDB_ID>  (82) 
pdb2cvi

>  <RESIDUE_NAME>  (82) 
LYS   MET

>  <FRAG_NAME>  (82) 
ETAM   MSM

>  <FRAG_ATOM_NUM>  (82) 
fragi: 11  fragj: 9

>  <atom.prop.CHAIN_ID>  (82) 
A A A A A A A A A A A Z Z Z Z Z Z Z Z Z

>  <atom.prop.IS_HEAVY_ATOM>  (82) 
1 0 0 0 1 0 0 1 0 0 0 1 0 0 0 1 1 0 0 0

>  <DIFUSE_FUNC_ATOM>  (82) 
n/a

>  <FINAL_SINGLE_POINT_ENERGY>  (82) 
0

>  <NONCOV_INTER_ENERGY_QM>  (82) 
0

>  <FF_Energy>  (82) 
-1.74

>  <QM_Energy>  (82) 
-6.76

>  <source>  (82) 
ETAM_MSM

>  <Index>  (82) 
519

$$$$
ETAM-pdb1c70-B-LYS-220:MSM-pdb1c70-B-MET-236
     RDKit          3D

 20 18  0  0  0  0  0  0  0  0999 V2000
    1.2539    0.8900   -0.0000 C   0  0  0  0  0  0  0  0  0  0  0  0
    1.3684    1.2700    0.8951 H   0  0  0  0  0  0  0  0  0  0  0  0
    1.1538    1.5723   -0.6948 H   0  0  0  0  0  0  0  0  0  0  0  0
    2.1208    0.2719   -0.2338 H   0  0  0  0  0  0  0  0  0  0  0  0
    0.0000    0.0000    0.0000 C   0  0  0  0  0  0  0  0  0  0  0  0
    0.0504   -0.6031   -0.8159 H   0  0  0  0  0  0  0  0  0  0  0  0
    0.0506   -0.6036    0.8158 H   0  0  0  0  0  0  0  0  0  0  0  0
   -1.2539    0.7347   -0.0000 N   0  0  0  0  0  4  0  0  0  0  0  0
   -2.0314    0.0984    0.0373 H   0  0  0  0  0  0  0  0  0  0  0  0
   -1.3009    1.3450    0.7979 H   0  0  0  0  0  0  0  0  0  0  0  0
   -1.3327    1.2902   -0.8347 H   0  0  0  0  0  0  0  0  0  0  0  0
   -3.7632    1.4173    3.0848 C   0  0  0  0  0  0  0  0  0  0  0  0
   -3.5496    2.2493    3.6173 H   0  0  0  0  0  0  0  0  0  0  0  0
   -4.4991    0.9225    3.5685 H   0  0  0  0  0  0  0  0  0  0  0  0
   -4.1331    1.7187    2.1048 H   0  0  0  0  0  0  0  0  0  0  0  0
   -2.2870    0.3666    2.9088 S   0  0  0  0  0  0  0  0  0  0  0  0
   -2.8820   -1.3014    2.8179 C   0  0  0  0  0  0  0  0  0  0  0  0
   -2.6160   -1.7153    1.9427 H   0  0  0  0  0  0  0  0  0  0  0  0
   -2.4941   -1.8467    3.5662 H   0  0  0  0  0  0  0  0  0  0  0  0
   -3.8837   -1.3146    2.8915 H   0  0  0  0  0  0  0  0  0  0  0  0
  1  5  1  0
  5  8  1  0
  1  2  1  0
  1  3  1  0
  1  4  1  0
  5  6  1  0
  5  7  1  0
  8  9  1  0
  8 10  1  0
  8 11  1  0
 12 16  1  0
 16 17  1  0
 12 13  1  0
 12 14  1  0
 12 15  1  0
 17 18  1  0
 17 19  1  0
 17 20  1  0
M  CHG  1   8   1
M  END
>  <PDB_ID>  (83) 
pdb1c70

>  <RESIDUE_NAME>  (83) 
LYS   MET

>  <FRAG_NAME>  (83) 
ETAM   MSM

>  <FRAG_ATOM_NUM>  (83) 
fragi: 11  fragj: 9

>  <atom.prop.CHAIN_ID>  (83) 
A A A A A A A A A A A Z Z Z Z Z Z Z Z Z

>  <atom.prop.IS_HEAVY_ATOM>  (83) 
1 0 0 0 1 0 0 1 0 0 0 1 0 0 0 1 1 0 0 0

>  <DIFUSE_FUNC_ATOM>  (83) 
n/a

>  <FINAL_SINGLE_POINT_ENERGY>  (83) 
0

>  <NONCOV_INTER_ENERGY_QM>  (83) 
0

>  <FF_Energy>  (83) 
-4.06

>  <QM_Energy>  (83) 
-13.43

>  <source>  (83) 
ETAM_MSM

>  <Index>  (83) 
523

$$$$
ETAM-pdb2cvw-A-LYS-723:MSM-pdb2cvw-A-MET-727
     RDKit          3D

 20 18  0  0  0  0  0  0  0  0999 V2000
    1.3059    0.8488    0.0000 C   0  0  0  0  0  0  0  0  0  0  0  0
    1.3002    1.4275   -0.8061 H   0  0  0  0  0  0  0  0  0  0  0  0
    2.0799    0.2283   -0.0169 H   0  0  0  0  0  0  0  0  0  0  0  0
    1.3962    1.4866    0.8793 H   0  0  0  0  0  0  0  0  0  0  0  0
    0.0000    0.0000    0.0000 C   0  0  0  0  0  0  0  0  0  0  0  0
    0.0137   -0.6009   -0.8161 H   0  0  0  0  0  0  0  0  0  0  0  0
    0.0124   -0.6014    0.8160 H   0  0  0  0  0  0  0  0  0  0  0  0
   -1.3059    0.7857   -0.0000 N   0  0  0  0  0  4  0  0  0  0  0  0
   -1.6374    0.8421   -0.9353 H   0  0  0  0  0  0  0  0  0  0  0  0
   -1.9607    0.3061    0.5735 H   0  0  0  0  0  0  0  0  0  0  0  0
   -1.1261    1.6939    0.3617 H   0  0  0  0  0  0  0  0  0  0  0  0
   -3.3384    3.9458    0.4419 C   0  0  0  0  0  0  0  0  0  0  0  0
   -2.3680    4.0705    0.0934 H   0  0  0  0  0  0  0  0  0  0  0  0
   -3.2201    3.8601    1.4706 H   0  0  0  0  0  0  0  0  0  0  0  0
   -3.8816    4.8704    0.2461 H   0  0  0  0  0  0  0  0  0  0  0  0
   -4.0561    2.3710   -0.2422 S   0  0  0  0  0  0  0  0  0  0  0  0
   -3.6648    2.2744   -2.0088 C   0  0  0  0  0  0  0  0  0  0  0  0
   -2.9661    2.9536   -2.2246 H   0  0  0  0  0  0  0  0  0  0  0  0
   -3.3257    1.3598   -2.2170 H   0  0  0  0  0  0  0  0  0  0  0  0
   -4.4915    2.4584   -2.5362 H   0  0  0  0  0  0  0  0  0  0  0  0
  1  5  1  0
  5  8  1  0
  1  2  1  0
  1  3  1  0
  1  4  1  0
  5  6  1  0
  5  7  1  0
  8  9  1  0
  8 10  1  0
  8 11  1  0
 12 16  1  0
 16 17  1  0
 12 13  1  0
 12 14  1  0
 12 15  1  0
 17 18  1  0
 17 19  1  0
 17 20  1  0
M  CHG  1   8   1
M  END
>  <PDB_ID>  (84) 
pdb2cvw

>  <RESIDUE_NAME>  (84) 
LYS   MET

>  <FRAG_NAME>  (84) 
ETAM   MSM

>  <FRAG_ATOM_NUM>  (84) 
fragi: 11  fragj: 9

>  <atom.prop.CHAIN_ID>  (84) 
A A A A A A A A A A A Z Z Z Z Z Z Z Z Z

>  <atom.prop.IS_HEAVY_ATOM>  (84) 
1 0 0 0 1 0 0 1 0 0 0 1 0 0 0 1 1 0 0 0

>  <DIFUSE_FUNC_ATOM>  (84) 
n/a

>  <FINAL_SINGLE_POINT_ENERGY>  (84) 
0

>  <NONCOV_INTER_ENERGY_QM>  (84) 
0

>  <FF_Energy>  (84) 
-2.65

>  <QM_Energy>  (84) 
-9.45

>  <source>  (84) 
ETAM_MSM

>  <Index>  (84) 
527

$$$$
ETAM-pdb2cvy-A-LYS-128:MSM-pdb2cvy-A-MET-125
     RDKit          3D

 20 18  0  0  0  0  0  0  0  0999 V2000
    1.2839    0.8549   -0.0000 C   0  0  0  0  0  0  0  0  0  0  0  0
    1.1834    1.5710    0.6742 H   0  0  0  0  0  0  0  0  0  0  0  0
    1.4117    1.2275   -0.9062 H   0  0  0  0  0  0  0  0  0  0  0  0
    2.1566    0.2546    0.2573 H   0  0  0  0  0  0  0  0  0  0  0  0
    0.0000    0.0000    0.0000 C   0  0  0  0  0  0  0  0  0  0  0  0
    0.0214   -0.6037   -0.8156 H   0  0  0  0  0  0  0  0  0  0  0  0
    0.0211   -0.6032    0.8163 H   0  0  0  0  0  0  0  0  0  0  0  0
   -1.2839    0.7717    0.0000 N   0  0  0  0  0  4  0  0  0  0  0  0
   -1.2739    1.4229   -0.7560 H   0  0  0  0  0  0  0  0  0  0  0  0
   -2.0471    0.1372   -0.1100 H   0  0  0  0  0  0  0  0  0  0  0  0
   -1.3718    1.2596    0.8663 H   0  0  0  0  0  0  0  0  0  0  0  0
   -2.4558   -2.5438   -3.0008 C   0  0  0  0  0  0  0  0  0  0  0  0
   -2.2843   -3.1904   -3.7884 H   0  0  0  0  0  0  0  0  0  0  0  0
   -3.4864   -2.4677   -2.9530 H   0  0  0  0  0  0  0  0  0  0  0  0
   -2.1193   -3.0393   -2.0900 H   0  0  0  0  0  0  0  0  0  0  0  0
   -1.7025   -0.9420   -3.3025 S   0  0  0  0  0  0  0  0  0  0  0  0
   -0.7182   -1.1581   -4.7761 C   0  0  0  0  0  0  0  0  0  0  0  0
   -1.1424   -1.8448   -5.3694 H   0  0  0  0  0  0  0  0  0  0  0  0
   -0.6548   -0.2891   -5.2711 H   0  0  0  0  0  0  0  0  0  0  0  0
    0.2039   -1.4630   -4.5266 H   0  0  0  0  0  0  0  0  0  0  0  0
  1  5  1  0
  5  8  1  0
  1  2  1  0
  1  3  1  0
  1  4  1  0
  5  6  1  0
  5  7  1  0
  8  9  1  0
  8 10  1  0
  8 11  1  0
 12 16  1  0
 16 17  1  0
 12 13  1  0
 12 14  1  0
 12 15  1  0
 17 18  1  0
 17 19  1  0
 17 20  1  0
M  CHG  1   8   1
M  END
>  <PDB_ID>  (85) 
pdb2cvy

>  <RESIDUE_NAME>  (85) 
LYS   MET

>  <FRAG_NAME>  (85) 
ETAM   MSM

>  <FRAG_ATOM_NUM>  (85) 
fragi: 11  fragj: 9

>  <atom.prop.CHAIN_ID>  (85) 
A A A A A A A A A A A Z Z Z Z Z Z Z Z Z

>  <atom.prop.IS_HEAVY_ATOM>  (85) 
1 0 0 0 1 0 0 1 0 0 0 1 0 0 0 1 1 0 0 0

>  <DIFUSE_FUNC_ATOM>  (85) 
n/a

>  <FINAL_SINGLE_POINT_ENERGY>  (85) 
0

>  <NONCOV_INTER_ENERGY_QM>  (85) 
0

>  <FF_Energy>  (85) 
-5.1

>  <QM_Energy>  (85) 
-11.4

>  <source>  (85) 
ETAM_MSM

>  <Index>  (85) 
528

$$$$
ETAM-pdb2cw6-A-LYS-58:MSM-pdb2cw6-A-MET-62
     RDKit          3D

 20 18  0  0  0  0  0  0  0  0999 V2000
    1.2586    0.8650    0.0000 C   0  0  0  0  0  0  0  0  0  0  0  0
    2.0511    0.2680    0.0949 H   0  0  0  0  0  0  0  0  0  0  0  0
    1.2091    1.4928    0.7713 H   0  0  0  0  0  0  0  0  0  0  0  0
    1.3592    1.4415   -0.9196 H   0  0  0  0  0  0  0  0  0  0  0  0
    0.0000    0.0000    0.0000 C   0  0  0  0  0  0  0  0  0  0  0  0
    0.0152   -0.5912   -0.8162 H   0  0  0  0  0  0  0  0  0  0  0  0
    0.0144   -0.5911    0.8168 H   0  0  0  0  0  0  0  0  0  0  0  0
   -1.2586    0.7995   -0.0000 N   0  0  0  0  0  4  0  0  0  0  0  0
   -1.0319    1.7718   -0.0309 H   0  0  0  0  0  0  0  0  0  0  0  0
   -1.8043    0.5557   -0.8005 H   0  0  0  0  0  0  0  0  0  0  0  0
   -1.7756    0.6014    0.8315 H   0  0  0  0  0  0  0  0  0  0  0  0
   -2.1358    3.9067   -3.2743 C   0  0  0  0  0  0  0  0  0  0  0  0
   -2.7534    3.2654   -3.7812 H   0  0  0  0  0  0  0  0  0  0  0  0
   -1.1888    3.5343   -3.3999 H   0  0  0  0  0  0  0  0  0  0  0  0
   -2.1903    4.8882   -3.7453 H   0  0  0  0  0  0  0  0  0  0  0  0
   -2.5710    3.9711   -1.5377 S   0  0  0  0  0  0  0  0  0  0  0  0
   -1.0808    3.5180   -0.9046 C   0  0  0  0  0  0  0  0  0  0  0  0
   -0.2988    3.8434   -1.4749 H   0  0  0  0  0  0  0  0  0  0  0  0
   -0.9257    3.8897    0.0334 H   0  0  0  0  0  0  0  0  0  0  0  0
   -0.9792    2.5049   -0.8309 H   0  0  0  0  0  0  0  0  0  0  0  0
  1  5  1  0
  5  8  1  0
  1  2  1  0
  1  3  1  0
  1  4  1  0
  5  6  1  0
  5  7  1  0
  8  9  1  0
  8 10  1  0
  8 11  1  0
 12 16  1  0
 16 17  1  0
 12 13  1  0
 12 14  1  0
 12 15  1  0
 17 18  1  0
 17 19  1  0
 17 20  1  0
M  CHG  1   8   1
M  END
>  <PDB_ID>  (86) 
pdb2cw6

>  <RESIDUE_NAME>  (86) 
LYS   MET

>  <FRAG_NAME>  (86) 
ETAM   MSM

>  <FRAG_ATOM_NUM>  (86) 
fragi: 11  fragj: 9

>  <atom.prop.CHAIN_ID>  (86) 
A A A A A A A A A A A Z Z Z Z Z Z Z Z Z

>  <atom.prop.IS_HEAVY_ATOM>  (86) 
1 0 0 0 1 0 0 1 0 0 0 1 0 0 0 1 1 0 0 0

>  <DIFUSE_FUNC_ATOM>  (86) 
n/a

>  <FINAL_SINGLE_POINT_ENERGY>  (86) 
0

>  <NONCOV_INTER_ENERGY_QM>  (86) 
0

>  <FF_Energy>  (86) 
34.61

>  <QM_Energy>  (86) 
14.3

>  <source>  (86) 
ETAM_MSM

>  <Index>  (86) 
533

$$$$
ETAM-pdb2cw6-B-LYS-58:MSM-pdb2cw6-B-MET-62
     RDKit          3D

 20 18  0  0  0  0  0  0  0  0999 V2000
    1.2543    0.8632    0.0000 C   0  0  0  0  0  0  0  0  0  0  0  0
    2.0478    0.2686    0.0937 H   0  0  0  0  0  0  0  0  0  0  0  0
    1.2048    1.4939    0.7689 H   0  0  0  0  0  0  0  0  0  0  0  0
    1.3511    1.4367   -0.9219 H   0  0  0  0  0  0  0  0  0  0  0  0
    0.0000    0.0000    0.0000 C   0  0  0  0  0  0  0  0  0  0  0  0
    0.0082   -0.5863   -0.8165 H   0  0  0  0  0  0  0  0  0  0  0  0
    0.0070   -0.5861    0.8169 H   0  0  0  0  0  0  0  0  0  0  0  0
   -1.2543    0.8163   -0.0000 N   0  0  0  0  0  4  0  0  0  0  0  0
   -1.8248    0.5394   -0.7713 H   0  0  0  0  0  0  0  0  0  0  0  0
   -1.7444    0.6634    0.8556 H   0  0  0  0  0  0  0  0  0  0  0  0
   -1.0167    1.7824   -0.0853 H   0  0  0  0  0  0  0  0  0  0  0  0
   -2.0407    2.7082   -3.7955 C   0  0  0  0  0  0  0  0  0  0  0  0
   -2.4643    1.8627   -4.1964 H   0  0  0  0  0  0  0  0  0  0  0  0
   -1.0340    2.5070   -3.7443 H   0  0  0  0  0  0  0  0  0  0  0  0
   -2.1952    3.5355   -4.4881 H   0  0  0  0  0  0  0  0  0  0  0  0
   -2.7068    3.0427   -2.1662 S   0  0  0  0  0  0  0  0  0  0  0  0
   -4.4119    2.4370   -2.3535 C   0  0  0  0  0  0  0  0  0  0  0  0
   -4.8153    2.8565   -3.1629 H   0  0  0  0  0  0  0  0  0  0  0  0
   -4.3922    1.4455   -2.4553 H   0  0  0  0  0  0  0  0  0  0  0  0
   -4.9337    2.6874   -1.5420 H   0  0  0  0  0  0  0  0  0  0  0  0
  1  5  1  0
  5  8  1  0
  1  2  1  0
  1  3  1  0
  1  4  1  0
  5  6  1  0
  5  7  1  0
  8  9  1  0
  8 10  1  0
  8 11  1  0
 12 16  1  0
 16 17  1  0
 12 13  1  0
 12 14  1  0
 12 15  1  0
 17 18  1  0
 17 19  1  0
 17 20  1  0
M  CHG  1   8   1
M  END
>  <PDB_ID>  (87) 
pdb2cw6

>  <RESIDUE_NAME>  (87) 
LYS   MET

>  <FRAG_NAME>  (87) 
ETAM   MSM

>  <FRAG_ATOM_NUM>  (87) 
fragi: 11  fragj: 9

>  <atom.prop.CHAIN_ID>  (87) 
A A A A A A A A A A A Z Z Z Z Z Z Z Z Z

>  <atom.prop.IS_HEAVY_ATOM>  (87) 
1 0 0 0 1 0 0 1 0 0 0 1 0 0 0 1 1 0 0 0

>  <DIFUSE_FUNC_ATOM>  (87) 
n/a

>  <FINAL_SINGLE_POINT_ENERGY>  (87) 
0

>  <NONCOV_INTER_ENERGY_QM>  (87) 
0

>  <FF_Energy>  (87) 
-4.73

>  <QM_Energy>  (87) 
-12.29

>  <source>  (87) 
ETAM_MSM

>  <Index>  (87) 
534

$$$$
ETAM-pdb1ca4-A-LYS-389:MSM-pdb1ca4-A-MET-414
     RDKit          3D

 20 18  0  0  0  0  0  0  0  0999 V2000
    1.2432    0.8831   -0.0000 C   0  0  0  0  0  0  0  0  0  0  0  0
    1.2611    1.4025    0.8446 H   0  0  0  0  0  0  0  0  0  0  0  0
    1.2015    1.4866   -0.7857 H   0  0  0  0  0  0  0  0  0  0  0  0
    2.1479    0.2786   -0.0638 H   0  0  0  0  0  0  0  0  0  0  0  0
    0.0000    0.0000    0.0000 C   0  0  0  0  0  0  0  0  0  0  0  0
    0.0189   -0.5822   -0.8159 H   0  0  0  0  0  0  0  0  0  0  0  0
    0.0191   -0.5825    0.8164 H   0  0  0  0  0  0  0  0  0  0  0  0
   -1.2432    0.8080    0.0000 N   0  0  0  0  0  4  0  0  0  0  0  0
   -1.0612    1.7007   -0.4137 H   0  0  0  0  0  0  0  0  0  0  0  0
   -1.9499    0.3343   -0.5275 H   0  0  0  0  0  0  0  0  0  0  0  0
   -1.5590    0.9351    0.9408 H   0  0  0  0  0  0  0  0  0  0  0  0
    1.6532   -0.9975   -4.7289 C   0  0  0  0  0  0  0  0  0  0  0  0
    1.2354   -0.9091   -5.6556 H   0  0  0  0  0  0  0  0  0  0  0  0
    2.5199   -1.5226   -4.8553 H   0  0  0  0  0  0  0  0  0  0  0  0
    1.9002   -0.0008   -4.3633 H   0  0  0  0  0  0  0  0  0  0  0  0
    0.5397   -1.8611   -3.6045 S   0  0  0  0  0  0  0  0  0  0  0  0
    1.5528   -1.9751   -2.2484 C   0  0  0  0  0  0  0  0  0  0  0  0
    1.0405   -1.8584   -1.3768 H   0  0  0  0  0  0  0  0  0  0  0  0
    2.0212   -2.8770   -2.1949 H   0  0  0  0  0  0  0  0  0  0  0  0
    2.2831   -1.2664   -2.2556 H   0  0  0  0  0  0  0  0  0  0  0  0
  1  5  1  0
  5  8  1  0
  1  2  1  0
  1  3  1  0
  1  4  1  0
  5  6  1  0
  5  7  1  0
  8  9  1  0
  8 10  1  0
  8 11  1  0
 12 16  1  0
 16 17  1  0
 12 13  1  0
 12 14  1  0
 12 15  1  0
 17 18  1  0
 17 19  1  0
 17 20  1  0
M  CHG  1   8   1
M  END
>  <PDB_ID>  (88) 
pdb1ca4

>  <RESIDUE_NAME>  (88) 
LYS   MET

>  <FRAG_NAME>  (88) 
ETAM   MSM

>  <FRAG_ATOM_NUM>  (88) 
fragi: 11  fragj: 9

>  <atom.prop.CHAIN_ID>  (88) 
A A A A A A A A A A A Z Z Z Z Z Z Z Z Z

>  <atom.prop.IS_HEAVY_ATOM>  (88) 
1 0 0 0 1 0 0 1 0 0 0 1 0 0 0 1 1 0 0 0

>  <DIFUSE_FUNC_ATOM>  (88) 
n/a

>  <FINAL_SINGLE_POINT_ENERGY>  (88) 
0

>  <NONCOV_INTER_ENERGY_QM>  (88) 
0

>  <FF_Energy>  (88) 
4.75

>  <QM_Energy>  (88) 
-2.35

>  <source>  (88) 
ETAM_MSM

>  <Index>  (88) 
548

$$$$
ETAM-pdb1ca4-C-LYS-493:MSM-pdb1ca4-C-MET-433
     RDKit          3D

 20 18  0  0  0  0  0  0  0  0999 V2000
    1.2447    0.8916    0.0000 C   0  0  0  0  0  0  0  0  0  0  0  0
    1.2330    1.4471    0.8239 H   0  0  0  0  0  0  0  0  0  0  0  0
    1.2187    1.4667   -0.8089 H   0  0  0  0  0  0  0  0  0  0  0  0
    2.1611    0.3015   -0.0148 H   0  0  0  0  0  0  0  0  0  0  0  0
    0.0000    0.0000    0.0000 C   0  0  0  0  0  0  0  0  0  0  0  0
    0.0143   -0.5721   -0.8162 H   0  0  0  0  0  0  0  0  0  0  0  0
    0.0140   -0.5726    0.8164 H   0  0  0  0  0  0  0  0  0  0  0  0
   -1.2447    0.8291    0.0000 N   0  0  0  0  0  4  0  0  0  0  0  0
   -1.0019    1.7851    0.1533 H   0  0  0  0  0  0  0  0  0  0  0  0
   -1.7022    0.7342   -0.8827 H   0  0  0  0  0  0  0  0  0  0  0  0
   -1.8494    0.5135    0.7293 H   0  0  0  0  0  0  0  0  0  0  0  0
    3.9119    2.1398   -4.6728 C   0  0  0  0  0  0  0  0  0  0  0  0
    4.1374    2.3949   -5.6307 H   0  0  0  0  0  0  0  0  0  0  0  0
    4.0825    1.1414   -4.5865 H   0  0  0  0  0  0  0  0  0  0  0  0
    4.5834    2.6724   -3.9995 H   0  0  0  0  0  0  0  0  0  0  0  0
    2.1709    2.5208   -4.3051 S   0  0  0  0  0  0  0  0  0  0  0  0
    2.1011    2.1470   -2.6323 C   0  0  0  0  0  0  0  0  0  0  0  0
    3.0266    2.1075   -2.2198 H   0  0  0  0  0  0  0  0  0  0  0  0
    1.5707    2.8408   -2.1159 H   0  0  0  0  0  0  0  0  0  0  0  0
    1.6605    1.2481   -2.4686 H   0  0  0  0  0  0  0  0  0  0  0  0
  1  5  1  0
  5  8  1  0
  1  2  1  0
  1  3  1  0
  1  4  1  0
  5  6  1  0
  5  7  1  0
  8  9  1  0
  8 10  1  0
  8 11  1  0
 12 16  1  0
 16 17  1  0
 12 13  1  0
 12 14  1  0
 12 15  1  0
 17 18  1  0
 17 19  1  0
 17 20  1  0
M  CHG  1   8   1
M  END
>  <PDB_ID>  (89) 
pdb1ca4

>  <RESIDUE_NAME>  (89) 
LYS   MET

>  <FRAG_NAME>  (89) 
ETAM   MSM

>  <FRAG_ATOM_NUM>  (89) 
fragi: 11  fragj: 9

>  <atom.prop.CHAIN_ID>  (89) 
A A A A A A A A A A A Z Z Z Z Z Z Z Z Z

>  <atom.prop.IS_HEAVY_ATOM>  (89) 
1 0 0 0 1 0 0 1 0 0 0 1 0 0 0 1 1 0 0 0

>  <DIFUSE_FUNC_ATOM>  (89) 
n/a

>  <FINAL_SINGLE_POINT_ENERGY>  (89) 
0

>  <NONCOV_INTER_ENERGY_QM>  (89) 
0

>  <FF_Energy>  (89) 
16.63

>  <QM_Energy>  (89) 
4.19

>  <source>  (89) 
ETAM_MSM

>  <Index>  (89) 
552

$$$$
ETAM-pdb1ca4-D-LYS-493:MSM-pdb1ca4-D-MET-433
     RDKit          3D

 20 18  0  0  0  0  0  0  0  0999 V2000
    1.2357    0.8772    0.0000 C   0  0  0  0  0  0  0  0  0  0  0  0
    1.2239    1.4470    0.8151 H   0  0  0  0  0  0  0  0  0  0  0  0
    1.2273    1.4415   -0.8187 H   0  0  0  0  0  0  0  0  0  0  0  0
    2.1453    0.2765    0.0047 H   0  0  0  0  0  0  0  0  0  0  0  0
    0.0000    0.0000    0.0000 C   0  0  0  0  0  0  0  0  0  0  0  0
    0.0132   -0.5815   -0.8165 H   0  0  0  0  0  0  0  0  0  0  0  0
    0.0131   -0.5817    0.8163 H   0  0  0  0  0  0  0  0  0  0  0  0
   -1.2357    0.8171   -0.0000 N   0  0  0  0  0  4  0  0  0  0  0  0
   -1.0270    1.7404   -0.3236 H   0  0  0  0  0  0  0  0  0  0  0  0
   -1.9143    0.3992   -0.6052 H   0  0  0  0  0  0  0  0  0  0  0  0
   -1.6049    0.8657    0.9293 H   0  0  0  0  0  0  0  0  0  0  0  0
    3.7203    2.8830   -4.5537 C   0  0  0  0  0  0  0  0  0  0  0  0
    3.9425    3.4689   -5.3564 H   0  0  0  0  0  0  0  0  0  0  0  0
    3.8913    1.9208   -4.8391 H   0  0  0  0  0  0  0  0  0  0  0  0
    4.3894    3.1365   -3.7314 H   0  0  0  0  0  0  0  0  0  0  0  0
    1.9831    3.0999   -4.0756 S   0  0  0  0  0  0  0  0  0  0  0  0
    1.8443    1.8643   -2.9043 C   0  0  0  0  0  0  0  0  0  0  0  0
    1.0226    1.2883   -3.0597 H   0  0  0  0  0  0  0  0  0  0  0  0
    2.6484    1.2438   -2.9126 H   0  0  0  0  0  0  0  0  0  0  0  0
    1.7692    2.2425   -1.9642 H   0  0  0  0  0  0  0  0  0  0  0  0
  1  5  1  0
  5  8  1  0
  1  2  1  0
  1  3  1  0
  1  4  1  0
  5  6  1  0
  5  7  1  0
  8  9  1  0
  8 10  1  0
  8 11  1  0
 12 16  1  0
 16 17  1  0
 12 13  1  0
 12 14  1  0
 12 15  1  0
 17 18  1  0
 17 19  1  0
 17 20  1  0
M  CHG  1   8   1
M  END
>  <PDB_ID>  (90) 
pdb1ca4

>  <RESIDUE_NAME>  (90) 
LYS   MET

>  <FRAG_NAME>  (90) 
ETAM   MSM

>  <FRAG_ATOM_NUM>  (90) 
fragi: 11  fragj: 9

>  <atom.prop.CHAIN_ID>  (90) 
A A A A A A A A A A A Z Z Z Z Z Z Z Z Z

>  <atom.prop.IS_HEAVY_ATOM>  (90) 
1 0 0 0 1 0 0 1 0 0 0 1 0 0 0 1 1 0 0 0

>  <DIFUSE_FUNC_ATOM>  (90) 
n/a

>  <FINAL_SINGLE_POINT_ENERGY>  (90) 
0

>  <NONCOV_INTER_ENERGY_QM>  (90) 
0

>  <FF_Energy>  (90) 
32.37

>  <QM_Energy>  (90) 
5.47

>  <source>  (90) 
ETAM_MSM

>  <Index>  (90) 
554

$$$$
ETAM-pdb1ca4-E-LYS-389:MSM-pdb1ca4-E-MET-414
     RDKit          3D

 20 18  0  0  0  0  0  0  0  0999 V2000
    1.2598    0.8635    0.0000 C   0  0  0  0  0  0  0  0  0  0  0  0
    1.2683    1.4087    0.8258 H   0  0  0  0  0  0  0  0  0  0  0  0
    1.2489    1.4363   -0.8068 H   0  0  0  0  0  0  0  0  0  0  0  0
    2.1531    0.2392   -0.0208 H   0  0  0  0  0  0  0  0  0  0  0  0
    0.0000    0.0000    0.0000 C   0  0  0  0  0  0  0  0  0  0  0  0
    0.0196   -0.5954   -0.8166 H   0  0  0  0  0  0  0  0  0  0  0  0
    0.0189   -0.5959    0.8160 H   0  0  0  0  0  0  0  0  0  0  0  0
   -1.2598    0.7867    0.0000 N   0  0  0  0  0  4  0  0  0  0  0  0
   -1.9554    0.3013   -0.5296 H   0  0  0  0  0  0  0  0  0  0  0  0
   -1.5787    0.9053    0.9406 H   0  0  0  0  0  0  0  0  0  0  0  0
   -1.0930    1.6823   -0.4117 H   0  0  0  0  0  0  0  0  0  0  0  0
    1.6164   -1.0399   -4.5915 C   0  0  0  0  0  0  0  0  0  0  0  0
    1.1831   -0.8909   -5.5036 H   0  0  0  0  0  0  0  0  0  0  0  0
    2.4640   -1.5813   -4.7635 H   0  0  0  0  0  0  0  0  0  0  0  0
    1.9004   -0.0713   -4.1800 H   0  0  0  0  0  0  0  0  0  0  0  0
    0.4991   -1.9330   -3.4905 S   0  0  0  0  0  0  0  0  0  0  0  0
    1.5570   -2.1998   -2.1778 C   0  0  0  0  0  0  0  0  0  0  0  0
    1.4843   -3.1485   -1.8205 H   0  0  0  0  0  0  0  0  0  0  0  0
    2.5280   -2.0544   -2.4391 H   0  0  0  0  0  0  0  0  0  0  0  0
    1.3614   -1.5744   -1.4016 H   0  0  0  0  0  0  0  0  0  0  0  0
  1  5  1  0
  5  8  1  0
  1  2  1  0
  1  3  1  0
  1  4  1  0
  5  6  1  0
  5  7  1  0
  8  9  1  0
  8 10  1  0
  8 11  1  0
 12 16  1  0
 16 17  1  0
 12 13  1  0
 12 14  1  0
 12 15  1  0
 17 18  1  0
 17 19  1  0
 17 20  1  0
M  CHG  1   8   1
M  END
>  <PDB_ID>  (91) 
pdb1ca4

>  <RESIDUE_NAME>  (91) 
LYS   MET

>  <FRAG_NAME>  (91) 
ETAM   MSM

>  <FRAG_ATOM_NUM>  (91) 
fragi: 11  fragj: 9

>  <atom.prop.CHAIN_ID>  (91) 
A A A A A A A A A A A Z Z Z Z Z Z Z Z Z

>  <atom.prop.IS_HEAVY_ATOM>  (91) 
1 0 0 0 1 0 0 1 0 0 0 1 0 0 0 1 1 0 0 0

>  <DIFUSE_FUNC_ATOM>  (91) 
n/a

>  <FINAL_SINGLE_POINT_ENERGY>  (91) 
0

>  <NONCOV_INTER_ENERGY_QM>  (91) 
0

>  <FF_Energy>  (91) 
3.19

>  <QM_Energy>  (91) 
-3.39

>  <source>  (91) 
ETAM_MSM

>  <Index>  (91) 
555

$$$$
ETAM-pdb1ca9-E-LYS-389:MSM-pdb1ca9-E-MET-414
     RDKit          3D

 20 18  0  0  0  0  0  0  0  0999 V2000
    1.2344    0.8868   -0.0000 C   0  0  0  0  0  0  0  0  0  0  0  0
    1.2630    1.3875    0.8565 H   0  0  0  0  0  0  0  0  0  0  0  0
    1.1743    1.5093   -0.7701 H   0  0  0  0  0  0  0  0  0  0  0  0
    2.1379    0.2843   -0.0937 H   0  0  0  0  0  0  0  0  0  0  0  0
    0.0000    0.0000    0.0000 C   0  0  0  0  0  0  0  0  0  0  0  0
    0.0131   -0.5738   -0.8161 H   0  0  0  0  0  0  0  0  0  0  0  0
    0.0128   -0.5748    0.8165 H   0  0  0  0  0  0  0  0  0  0  0  0
   -1.2344    0.8280    0.0000 N   0  0  0  0  0  4  0  0  0  0  0  0
   -1.0547    1.6933   -0.4670 H   0  0  0  0  0  0  0  0  0  0  0  0
   -1.9639    0.3368   -0.4763 H   0  0  0  0  0  0  0  0  0  0  0  0
   -1.5131    1.0085    0.9433 H   0  0  0  0  0  0  0  0  0  0  0  0
    1.7135   -0.0427   -4.8229 C   0  0  0  0  0  0  0  0  0  0  0  0
    1.3878    0.2679   -5.7501 H   0  0  0  0  0  0  0  0  0  0  0  0
    2.5703   -0.5832   -5.0128 H   0  0  0  0  0  0  0  0  0  0  0  0
    1.9896    0.8407   -4.2473 H   0  0  0  0  0  0  0  0  0  0  0  0
    0.4971   -1.0273   -4.0076 S   0  0  0  0  0  0  0  0  0  0  0  0
    1.3860   -1.5887   -2.6190 C   0  0  0  0  0  0  0  0  0  0  0  0
    1.1129   -1.0842   -1.7877 H   0  0  0  0  0  0  0  0  0  0  0  0
    1.2186   -2.5710   -2.4566 H   0  0  0  0  0  0  0  0  0  0  0  0
    2.3786   -1.4594   -2.7504 H   0  0  0  0  0  0  0  0  0  0  0  0
  1  5  1  0
  5  8  1  0
  1  2  1  0
  1  3  1  0
  1  4  1  0
  5  6  1  0
  5  7  1  0
  8  9  1  0
  8 10  1  0
  8 11  1  0
 12 16  1  0
 16 17  1  0
 12 13  1  0
 12 14  1  0
 12 15  1  0
 17 18  1  0
 17 19  1  0
 17 20  1  0
M  CHG  1   8   1
M  END
>  <PDB_ID>  (92) 
pdb1ca9

>  <RESIDUE_NAME>  (92) 
LYS   MET

>  <FRAG_NAME>  (92) 
ETAM   MSM

>  <FRAG_ATOM_NUM>  (92) 
fragi: 11  fragj: 9

>  <atom.prop.CHAIN_ID>  (92) 
A A A A A A A A A A A Z Z Z Z Z Z Z Z Z

>  <atom.prop.IS_HEAVY_ATOM>  (92) 
1 0 0 0 1 0 0 1 0 0 0 1 0 0 0 1 1 0 0 0

>  <DIFUSE_FUNC_ATOM>  (92) 
n/a

>  <FINAL_SINGLE_POINT_ENERGY>  (92) 
0

>  <NONCOV_INTER_ENERGY_QM>  (92) 
0

>  <FF_Energy>  (92) 
20.21

>  <QM_Energy>  (92) 
-0.18

>  <source>  (92) 
ETAM_MSM

>  <Index>  (92) 
564

$$$$
ETAM-pdb1cb7-B-LYS-326:MSM-pdb1cb7-B-MET-294
     RDKit          3D

 20 18  0  0  0  0  0  0  0  0999 V2000
    1.2514    0.8879   -0.0000 C   0  0  0  0  0  0  0  0  0  0  0  0
    1.1699    1.5407    0.7403 H   0  0  0  0  0  0  0  0  0  0  0  0
    1.3061    1.3473   -0.8756 H   0  0  0  0  0  0  0  0  0  0  0  0
    2.1499    0.2889    0.1486 H   0  0  0  0  0  0  0  0  0  0  0  0
    0.0000    0.0000    0.0000 C   0  0  0  0  0  0  0  0  0  0  0  0
    0.0228   -0.5821   -0.8165 H   0  0  0  0  0  0  0  0  0  0  0  0
    0.0231   -0.5823    0.8164 H   0  0  0  0  0  0  0  0  0  0  0  0
   -1.2514    0.8020    0.0000 N   0  0  0  0  0  4  0  0  0  0  0  0
   -1.0736    1.6965   -0.4098 H   0  0  0  0  0  0  0  0  0  0  0  0
   -1.9519    0.3246   -0.5303 H   0  0  0  0  0  0  0  0  0  0  0  0
   -1.5691    0.9227    0.9405 H   0  0  0  0  0  0  0  0  0  0  0  0
   -2.4145   -3.1707    2.3773 C   0  0  0  0  0  0  0  0  0  0  0  0
   -1.4912   -3.3397    2.7850 H   0  0  0  0  0  0  0  0  0  0  0  0
   -2.9276   -4.0501    2.4736 H   0  0  0  0  0  0  0  0  0  0  0  0
   -2.9198   -2.4054    2.9665 H   0  0  0  0  0  0  0  0  0  0  0  0
   -2.2700   -2.7038    0.6414 S   0  0  0  0  0  0  0  0  0  0  0  0
   -3.9746   -2.8817    0.0941 C   0  0  0  0  0  0  0  0  0  0  0  0
   -4.3589   -1.9777   -0.0921 H   0  0  0  0  0  0  0  0  0  0  0  0
   -3.9992   -3.4339   -0.7392 H   0  0  0  0  0  0  0  0  0  0  0  0
   -4.5082   -3.3317    0.8108 H   0  0  0  0  0  0  0  0  0  0  0  0
  1  5  1  0
  5  8  1  0
  1  2  1  0
  1  3  1  0
  1  4  1  0
  5  6  1  0
  5  7  1  0
  8  9  1  0
  8 10  1  0
  8 11  1  0
 12 16  1  0
 16 17  1  0
 12 13  1  0
 12 14  1  0
 12 15  1  0
 17 18  1  0
 17 19  1  0
 17 20  1  0
M  CHG  1   8   1
M  END
>  <PDB_ID>  (93) 
pdb1cb7

>  <RESIDUE_NAME>  (93) 
LYS   MET

>  <FRAG_NAME>  (93) 
ETAM   MSM

>  <FRAG_ATOM_NUM>  (93) 
fragi: 11  fragj: 9

>  <atom.prop.CHAIN_ID>  (93) 
A A A A A A A A A A A Z Z Z Z Z Z Z Z Z

>  <atom.prop.IS_HEAVY_ATOM>  (93) 
1 0 0 0 1 0 0 1 0 0 0 1 0 0 0 1 1 0 0 0

>  <DIFUSE_FUNC_ATOM>  (93) 
n/a

>  <FINAL_SINGLE_POINT_ENERGY>  (93) 
0

>  <NONCOV_INTER_ENERGY_QM>  (93) 
0

>  <FF_Energy>  (93) 
-4.78

>  <QM_Energy>  (93) 
-11.1

>  <source>  (93) 
ETAM_MSM

>  <Index>  (93) 
583

$$$$
ETAM-pdb1ceq-A-LYS-62:MSM-pdb1ceq-A-MET-58
     RDKit          3D

 20 18  0  0  0  0  0  0  0  0999 V2000
    1.2262    0.9016   -0.0000 C   0  0  0  0  0  0  0  0  0  0  0  0
    1.2676    1.3812    0.8670 H   0  0  0  0  0  0  0  0  0  0  0  0
    1.1506    1.5401   -0.7544 H   0  0  0  0  0  0  0  0  0  0  0  0
    2.1380    0.3171   -0.1223 H   0  0  0  0  0  0  0  0  0  0  0  0
    0.0000    0.0000    0.0000 C   0  0  0  0  0  0  0  0  0  0  0  0
    0.0104   -0.5622   -0.8163 H   0  0  0  0  0  0  0  0  0  0  0  0
    0.0095   -0.5629    0.8160 H   0  0  0  0  0  0  0  0  0  0  0  0
   -1.2262    0.8490    0.0000 N   0  0  0  0  0  4  0  0  0  0  0  0
   -1.0132    1.7361   -0.4069 H   0  0  0  0  0  0  0  0  0  0  0  0
   -1.9401    0.3979   -0.5332 H   0  0  0  0  0  0  0  0  0  0  0  0
   -1.5392    0.9769    0.9400 H   0  0  0  0  0  0  0  0  0  0  0  0
    0.5800   -3.2230    2.5185 C   0  0  0  0  0  0  0  0  0  0  0  0
    1.1513   -3.2773    1.6818 H   0  0  0  0  0  0  0  0  0  0  0  0
   -0.3184   -3.6378    2.2949 H   0  0  0  0  0  0  0  0  0  0  0  0
    1.0528   -3.8104    3.3056 H   0  0  0  0  0  0  0  0  0  0  0  0
    0.3802   -1.5096    3.0473 S   0  0  0  0  0  0  0  0  0  0  0  0
   -1.0392   -1.7142    4.1349 C   0  0  0  0  0  0  0  0  0  0  0  0
   -1.8699   -1.4419    3.6501 H   0  0  0  0  0  0  0  0  0  0  0  0
   -1.1110   -2.6724    4.4103 H   0  0  0  0  0  0  0  0  0  0  0  0
   -0.9214   -1.1412    4.9459 H   0  0  0  0  0  0  0  0  0  0  0  0
  1  5  1  0
  5  8  1  0
  1  2  1  0
  1  3  1  0
  1  4  1  0
  5  6  1  0
  5  7  1  0
  8  9  1  0
  8 10  1  0
  8 11  1  0
 12 16  1  0
 16 17  1  0
 12 13  1  0
 12 14  1  0
 12 15  1  0
 17 18  1  0
 17 19  1  0
 17 20  1  0
M  CHG  1   8   1
M  END
>  <PDB_ID>  (94) 
pdb1ceq

>  <RESIDUE_NAME>  (94) 
LYS   MET

>  <FRAG_NAME>  (94) 
ETAM   MSM

>  <FRAG_ATOM_NUM>  (94) 
fragi: 11  fragj: 9

>  <atom.prop.CHAIN_ID>  (94) 
A A A A A A A A A A A Z Z Z Z Z Z Z Z Z

>  <atom.prop.IS_HEAVY_ATOM>  (94) 
1 0 0 0 1 0 0 1 0 0 0 1 0 0 0 1 1 0 0 0

>  <DIFUSE_FUNC_ATOM>  (94) 
n/a

>  <FINAL_SINGLE_POINT_ENERGY>  (94) 
0

>  <NONCOV_INTER_ENERGY_QM>  (94) 
0

>  <FF_Energy>  (94) 
-0.51

>  <QM_Energy>  (94) 
-7.92

>  <source>  (94) 
ETAM_MSM

>  <Index>  (94) 
586

$$$$
ETAM-pdb1cez-A-LYS-120:MSM-pdb1cez-A-MET-267
     RDKit          3D

 20 18  0  0  0  0  0  0  0  0999 V2000
    1.2358    0.8765    0.0000 C   0  0  0  0  0  0  0  0  0  0  0  0
    2.0330    0.3078    0.2231 H   0  0  0  0  0  0  0  0  0  0  0  0
    1.1311    1.5791    0.7095 H   0  0  0  0  0  0  0  0  0  0  0  0
    1.4228    1.3728   -0.9523 H   0  0  0  0  0  0  0  0  0  0  0  0
    0.0000    0.0000    0.0000 C   0  0  0  0  0  0  0  0  0  0  0  0
    0.0036   -0.5737   -0.8161 H   0  0  0  0  0  0  0  0  0  0  0  0
    0.0037   -0.5737    0.8164 H   0  0  0  0  0  0  0  0  0  0  0  0
   -1.2358    0.8397    0.0000 N   0  0  0  0  0  4  0  0  0  0  0  0
   -1.9918    0.3125   -0.3845 H   0  0  0  0  0  0  0  0  0  0  0  0
   -1.4530    1.1052    0.9381 H   0  0  0  0  0  0  0  0  0  0  0  0
   -1.0782    1.6558   -0.5541 H   0  0  0  0  0  0  0  0  0  0  0  0
   -5.3519    1.8734    0.1548 C   0  0  0  0  0  0  0  0  0  0  0  0
   -5.9509    2.6874    0.0541 H   0  0  0  0  0  0  0  0  0  0  0  0
   -5.7527    1.2987    0.8901 H   0  0  0  0  0  0  0  0  0  0  0  0
   -5.3652    1.3102   -0.7782 H   0  0  0  0  0  0  0  0  0  0  0  0
   -3.6405    2.4033    0.6296 S   0  0  0  0  0  0  0  0  0  0  0  0
   -3.0407    3.0696   -0.9566 C   0  0  0  0  0  0  0  0  0  0  0  0
   -3.2300    2.4061   -1.6754 H   0  0  0  0  0  0  0  0  0  0  0  0
   -3.5158    3.9248   -1.1446 H   0  0  0  0  0  0  0  0  0  0  0  0
   -2.0603    3.2293   -0.8865 H   0  0  0  0  0  0  0  0  0  0  0  0
  1  5  1  0
  5  8  1  0
  1  2  1  0
  1  3  1  0
  1  4  1  0
  5  6  1  0
  5  7  1  0
  8  9  1  0
  8 10  1  0
  8 11  1  0
 12 16  1  0
 16 17  1  0
 12 13  1  0
 12 14  1  0
 12 15  1  0
 17 18  1  0
 17 19  1  0
 17 20  1  0
M  CHG  1   8   1
M  END
>  <PDB_ID>  (95) 
pdb1cez

>  <RESIDUE_NAME>  (95) 
LYS   MET

>  <FRAG_NAME>  (95) 
ETAM   MSM

>  <FRAG_ATOM_NUM>  (95) 
fragi: 11  fragj: 9

>  <atom.prop.CHAIN_ID>  (95) 
A A A A A A A A A A A Z Z Z Z Z Z Z Z Z

>  <atom.prop.IS_HEAVY_ATOM>  (95) 
1 0 0 0 1 0 0 1 0 0 0 1 0 0 0 1 1 0 0 0

>  <DIFUSE_FUNC_ATOM>  (95) 
n/a

>  <FINAL_SINGLE_POINT_ENERGY>  (95) 
0

>  <NONCOV_INTER_ENERGY_QM>  (95) 
0

>  <FF_Energy>  (95) 
1.29

>  <QM_Energy>  (95) 
-8.09

>  <source>  (95) 
ETAM_MSM

>  <Index>  (95) 
590

$$$$
ETAM-pdb1cer-C-LYS-114:MSM-pdb1cer-C-MET-1
     RDKit          3D

 20 18  0  0  0  0  0  0  0  0999 V2000
    1.3114    0.8348    0.0000 C   0  0  0  0  0  0  0  0  0  0  0  0
    1.2937    1.4230    0.8000 H   0  0  0  0  0  0  0  0  0  0  0  0
    1.3246    1.3741   -0.8325 H   0  0  0  0  0  0  0  0  0  0  0  0
    2.1949    0.1973    0.0363 H   0  0  0  0  0  0  0  0  0  0  0  0
    0.0000    0.0000    0.0000 C   0  0  0  0  0  0  0  0  0  0  0  0
   -0.0066   -0.5936   -0.8162 H   0  0  0  0  0  0  0  0  0  0  0  0
   -0.0068   -0.5934    0.8167 H   0  0  0  0  0  0  0  0  0  0  0  0
   -1.3114    0.8221    0.0000 N   0  0  0  0  0  4  0  0  0  0  0  0
   -1.5635    0.9876    0.9430 H   0  0  0  0  0  0  0  0  0  0  0  0
   -1.1353    1.6722   -0.4764 H   0  0  0  0  0  0  0  0  0  0  0  0
   -2.0030    0.2876   -0.4665 H   0  0  0  0  0  0  0  0  0  0  0  0
   -2.7147   -0.7616    2.7319 C   0  0  0  0  0  0  0  0  0  0  0  0
   -3.2039    0.0654    3.0149 H   0  0  0  0  0  0  0  0  0  0  0  0
   -1.7806   -0.5163    2.4667 H   0  0  0  0  0  0  0  0  0  0  0  0
   -2.6929   -1.4786    3.5525 H   0  0  0  0  0  0  0  0  0  0  0  0
   -3.5760   -1.5496    1.3261 S   0  0  0  0  0  0  0  0  0  0  0  0
   -2.4998   -2.9630    1.0610 C   0  0  0  0  0  0  0  0  0  0  0  0
   -2.7157   -3.3856    0.1801 H   0  0  0  0  0  0  0  0  0  0  0  0
   -1.5472   -2.6609    1.0614 H   0  0  0  0  0  0  0  0  0  0  0  0
   -2.6395   -3.6303    1.7939 H   0  0  0  0  0  0  0  0  0  0  0  0
  1  5  1  0
  5  8  1  0
  1  2  1  0
  1  3  1  0
  1  4  1  0
  5  6  1  0
  5  7  1  0
  8  9  1  0
  8 10  1  0
  8 11  1  0
 12 16  1  0
 16 17  1  0
 12 13  1  0
 12 14  1  0
 12 15  1  0
 17 18  1  0
 17 19  1  0
 17 20  1  0
M  CHG  1   8   1
M  END
>  <PDB_ID>  (96) 
pdb1cer

>  <RESIDUE_NAME>  (96) 
LYS   MET

>  <FRAG_NAME>  (96) 
ETAM   MSM

>  <FRAG_ATOM_NUM>  (96) 
fragi: 11  fragj: 9

>  <atom.prop.CHAIN_ID>  (96) 
A A A A A A A A A A A Z Z Z Z Z Z Z Z Z

>  <atom.prop.IS_HEAVY_ATOM>  (96) 
1 0 0 0 1 0 0 1 0 0 0 1 0 0 0 1 1 0 0 0

>  <DIFUSE_FUNC_ATOM>  (96) 
n/a

>  <FINAL_SINGLE_POINT_ENERGY>  (96) 
0

>  <NONCOV_INTER_ENERGY_QM>  (96) 
0

>  <FF_Energy>  (96) 
-3.08

>  <QM_Energy>  (96) 
-9.04

>  <source>  (96) 
ETAM_MSM

>  <Index>  (96) 
594

$$$$
ETAM-pdb1cer-Q-LYS-114:MSM-pdb1cer-Q-MET-1
     RDKit          3D

 20 18  0  0  0  0  0  0  0  0999 V2000
    1.3117    0.8339    0.0000 C   0  0  0  0  0  0  0  0  0  0  0  0
    1.2948    1.4223    0.7995 H   0  0  0  0  0  0  0  0  0  0  0  0
    1.3245    1.3731   -0.8327 H   0  0  0  0  0  0  0  0  0  0  0  0
    2.1944    0.1954    0.0361 H   0  0  0  0  0  0  0  0  0  0  0  0
    0.0000    0.0000    0.0000 C   0  0  0  0  0  0  0  0  0  0  0  0
   -0.0069   -0.5936   -0.8159 H   0  0  0  0  0  0  0  0  0  0  0  0
   -0.0070   -0.5934    0.8163 H   0  0  0  0  0  0  0  0  0  0  0  0
   -1.3117    0.8232   -0.0000 N   0  0  0  0  0  4  0  0  0  0  0  0
   -1.8690    0.5027    0.7526 H   0  0  0  0  0  0  0  0  0  0  0  0
   -1.0698    1.7763    0.1151 H   0  0  0  0  0  0  0  0  0  0  0  0
   -1.7626    0.6711   -0.8684 H   0  0  0  0  0  0  0  0  0  0  0  0
   -2.7146   -0.7603    2.7327 C   0  0  0  0  0  0  0  0  0  0  0  0
   -3.2039    0.0676    3.0142 H   0  0  0  0  0  0  0  0  0  0  0  0
   -1.7799   -0.5157    2.4675 H   0  0  0  0  0  0  0  0  0  0  0  0
   -2.6938   -1.4774    3.5534 H   0  0  0  0  0  0  0  0  0  0  0  0
   -3.5773   -1.5470    1.3268 S   0  0  0  0  0  0  0  0  0  0  0  0
   -2.5016   -2.9621    1.0619 C   0  0  0  0  0  0  0  0  0  0  0  0
   -2.0900   -2.9016    0.1524 H   0  0  0  0  0  0  0  0  0  0  0  0
   -1.7811   -2.9678    1.7557 H   0  0  0  0  0  0  0  0  0  0  0  0
   -3.0373   -3.8051    1.1305 H   0  0  0  0  0  0  0  0  0  0  0  0
  1  5  1  0
  5  8  1  0
  1  2  1  0
  1  3  1  0
  1  4  1  0
  5  6  1  0
  5  7  1  0
  8  9  1  0
  8 10  1  0
  8 11  1  0
 12 16  1  0
 16 17  1  0
 12 13  1  0
 12 14  1  0
 12 15  1  0
 17 18  1  0
 17 19  1  0
 17 20  1  0
M  CHG  1   8   1
M  END
>  <PDB_ID>  (97) 
pdb1cer

>  <RESIDUE_NAME>  (97) 
LYS   MET

>  <FRAG_NAME>  (97) 
ETAM   MSM

>  <FRAG_ATOM_NUM>  (97) 
fragi: 11  fragj: 9

>  <atom.prop.CHAIN_ID>  (97) 
A A A A A A A A A A A Z Z Z Z Z Z Z Z Z

>  <atom.prop.IS_HEAVY_ATOM>  (97) 
1 0 0 0 1 0 0 1 0 0 0 1 0 0 0 1 1 0 0 0

>  <DIFUSE_FUNC_ATOM>  (97) 
n/a

>  <FINAL_SINGLE_POINT_ENERGY>  (97) 
0

>  <NONCOV_INTER_ENERGY_QM>  (97) 
0

>  <FF_Energy>  (97) 
-3.39

>  <QM_Energy>  (97) 
-9.2

>  <source>  (97) 
ETAM_MSM

>  <Index>  (97) 
597

$$$$
ETAM-pdb2d1c-A-LYS-20:MSM-pdb2d1c-A-MET-12
     RDKit          3D

 20 18  0  0  0  0  0  0  0  0999 V2000
    1.2447    0.8776    0.0000 C   0  0  0  0  0  0  0  0  0  0  0  0
    1.1675    1.5296    0.7371 H   0  0  0  0  0  0  0  0  0  0  0  0
    1.3102    1.3271   -0.8766 H   0  0  0  0  0  0  0  0  0  0  0  0
    2.1265    0.2564    0.1565 H   0  0  0  0  0  0  0  0  0  0  0  0
    0.0000    0.0000    0.0000 C   0  0  0  0  0  0  0  0  0  0  0  0
    0.0169   -0.5835   -0.8162 H   0  0  0  0  0  0  0  0  0  0  0  0
    0.0163   -0.5846    0.8162 H   0  0  0  0  0  0  0  0  0  0  0  0
   -1.2447    0.8080    0.0000 N   0  0  0  0  0  4  0  0  0  0  0  0
   -1.5118    1.0094   -0.9426 H   0  0  0  0  0  0  0  0  0  0  0  0
   -1.9756    0.2948    0.4509 H   0  0  0  0  0  0  0  0  0  0  0  0
   -1.0869    1.6643    0.4914 H   0  0  0  0  0  0  0  0  0  0  0  0
    1.6393   -0.7752   -4.6832 C   0  0  0  0  0  0  0  0  0  0  0  0
    1.2432   -1.0121   -5.5816 H   0  0  0  0  0  0  0  0  0  0  0  0
    1.7676   -1.6332   -4.1660 H   0  0  0  0  0  0  0  0  0  0  0  0
    2.6047   -0.2907   -4.8296 H   0  0  0  0  0  0  0  0  0  0  0  0
    0.5327    0.3464   -3.7803 S   0  0  0  0  0  0  0  0  0  0  0  0
   -0.2019    1.2738   -5.1431 C   0  0  0  0  0  0  0  0  0  0  0  0
    0.1549    0.9249   -6.0086 H   0  0  0  0  0  0  0  0  0  0  0  0
   -1.1944    1.1640   -5.1188 H   0  0  0  0  0  0  0  0  0  0  0  0
    0.0327    2.2402   -5.0475 H   0  0  0  0  0  0  0  0  0  0  0  0
  1  5  1  0
  5  8  1  0
  1  2  1  0
  1  3  1  0
  1  4  1  0
  5  6  1  0
  5  7  1  0
  8  9  1  0
  8 10  1  0
  8 11  1  0
 12 16  1  0
 16 17  1  0
 12 13  1  0
 12 14  1  0
 12 15  1  0
 17 18  1  0
 17 19  1  0
 17 20  1  0
M  CHG  1   8   1
M  END
>  <PDB_ID>  (98) 
pdb2d1c

>  <RESIDUE_NAME>  (98) 
LYS   MET

>  <FRAG_NAME>  (98) 
ETAM   MSM

>  <FRAG_ATOM_NUM>  (98) 
fragi: 11  fragj: 9

>  <atom.prop.CHAIN_ID>  (98) 
A A A A A A A A A A A Z Z Z Z Z Z Z Z Z

>  <atom.prop.IS_HEAVY_ATOM>  (98) 
1 0 0 0 1 0 0 1 0 0 0 1 0 0 0 1 1 0 0 0

>  <DIFUSE_FUNC_ATOM>  (98) 
n/a

>  <FINAL_SINGLE_POINT_ENERGY>  (98) 
0

>  <NONCOV_INTER_ENERGY_QM>  (98) 
0

>  <FF_Energy>  (98) 
-4.69

>  <QM_Energy>  (98) 
-10.08

>  <source>  (98) 
ETAM_MSM

>  <Index>  (98) 
614

$$$$
ETAM-pdb2d1c-B-LYS-20:MSM-pdb2d1c-B-MET-12
     RDKit          3D

 20 18  0  0  0  0  0  0  0  0999 V2000
    1.2225    0.9233    0.0000 C   0  0  0  0  0  0  0  0  0  0  0  0
    0.9039    1.8678   -0.0297 H   0  0  0  0  0  0  0  0  0  0  0  0
    1.7680    0.7219   -0.8095 H   0  0  0  0  0  0  0  0  0  0  0  0
    1.8450    0.7921    0.8851 H   0  0  0  0  0  0  0  0  0  0  0  0
    0.0000    0.0000    0.0000 C   0  0  0  0  0  0  0  0  0  0  0  0
    0.0385   -0.5701   -0.8162 H   0  0  0  0  0  0  0  0  0  0  0  0
    0.0380   -0.5711    0.8162 H   0  0  0  0  0  0  0  0  0  0  0  0
   -1.2225    0.8012   -0.0000 N   0  0  0  0  0  4  0  0  0  0  0  0
   -0.9971    1.7753   -0.0925 H   0  0  0  0  0  0  0  0  0  0  0  0
   -1.8116    0.5306   -0.7666 H   0  0  0  0  0  0  0  0  0  0  0  0
   -1.7240    0.6644    0.8591 H   0  0  0  0  0  0  0  0  0  0  0  0
    1.5280    1.9049   -4.4611 C   0  0  0  0  0  0  0  0  0  0  0  0
    1.1451    2.0748   -5.3861 H   0  0  0  0  0  0  0  0  0  0  0  0
    1.7082    0.9081   -4.3937 H   0  0  0  0  0  0  0  0  0  0  0  0
    2.4682    2.4469   -4.3588 H   0  0  0  0  0  0  0  0  0  0  0  0
    0.3473    2.4220   -3.1824 S   0  0  0  0  0  0  0  0  0  0  0  0
   -0.5353    3.7311   -4.0448 C   0  0  0  0  0  0  0  0  0  0  0  0
    0.0438    4.0988   -4.7714 H   0  0  0  0  0  0  0  0  0  0  0  0
   -1.3743    3.3600   -4.4417 H   0  0  0  0  0  0  0  0  0  0  0  0
   -0.7638    4.4590   -3.3986 H   0  0  0  0  0  0  0  0  0  0  0  0
  1  5  1  0
  5  8  1  0
  1  2  1  0
  1  3  1  0
  1  4  1  0
  5  6  1  0
  5  7  1  0
  8  9  1  0
  8 10  1  0
  8 11  1  0
 12 16  1  0
 16 17  1  0
 12 13  1  0
 12 14  1  0
 12 15  1  0
 17 18  1  0
 17 19  1  0
 17 20  1  0
M  CHG  1   8   1
M  END
>  <PDB_ID>  (99) 
pdb2d1c

>  <RESIDUE_NAME>  (99) 
LYS   MET

>  <FRAG_NAME>  (99) 
ETAM   MSM

>  <FRAG_ATOM_NUM>  (99) 
fragi: 11  fragj: 9

>  <atom.prop.CHAIN_ID>  (99) 
A A A A A A A A A A A Z Z Z Z Z Z Z Z Z

>  <atom.prop.IS_HEAVY_ATOM>  (99) 
1 0 0 0 1 0 0 1 0 0 0 1 0 0 0 1 1 0 0 0

>  <DIFUSE_FUNC_ATOM>  (99) 
n/a

>  <FINAL_SINGLE_POINT_ENERGY>  (99) 
0

>  <NONCOV_INTER_ENERGY_QM>  (99) 
0

>  <FF_Energy>  (99) 
-5.06

>  <QM_Energy>  (99) 
-10.77

>  <source>  (99) 
ETAM_MSM

>  <Index>  (99) 
615

$$$$
ETAM-pdb1cjl-A-LYS-203:MSM-pdb1cjl-A-MET-123
     RDKit          3D

 20 18  0  0  0  0  0  0  0  0999 V2000
    1.2214    0.8918   -0.0000 C   0  0  0  0  0  0  0  0  0  0  0  0
    1.8948    0.5095    0.6206 H   0  0  0  0  0  0  0  0  0  0  0  0
    0.9510    1.8011    0.2898 H   0  0  0  0  0  0  0  0  0  0  0  0
    1.6489    0.9468   -1.0012 H   0  0  0  0  0  0  0  0  0  0  0  0
    0.0000    0.0000    0.0000 C   0  0  0  0  0  0  0  0  0  0  0  0
    0.0178   -0.5753   -0.8155 H   0  0  0  0  0  0  0  0  0  0  0  0
    0.0175   -0.5749    0.8159 H   0  0  0  0  0  0  0  0  0  0  0  0
   -1.2214    0.8204    0.0000 N   0  0  0  0  0  4  0  0  0  0  0  0
   -1.1235    1.5889   -0.6934 H   0  0  0  0  0  0  0  0  0  0  0  0
   -2.0372    0.2280   -0.2532 H   0  0  0  0  0  0  0  0  0  0  0  0
   -1.3679    1.2245    0.9473 H   0  0  0  0  0  0  0  0  0  0  0  0
   -2.7822   -2.6390    1.7707 C   0  0  0  0  0  0  0  0  0  0  0  0
   -3.4197   -3.1604    2.3944 H   0  0  0  0  0  0  0  0  0  0  0  0
   -2.0362   -2.2937    2.3963 H   0  0  0  0  0  0  0  0  0  0  0  0
   -2.3389   -3.3467    1.0701 H   0  0  0  0  0  0  0  0  0  0  0  0
   -3.6404   -1.2667    0.9842 S   0  0  0  0  0  0  0  0  0  0  0  0
   -4.7871   -2.1366   -0.0088 C   0  0  0  0  0  0  0  0  0  0  0  0
   -5.4739   -1.5075   -0.3951 H   0  0  0  0  0  0  0  0  0  0  0  0
   -4.3193   -2.5984   -0.7732 H   0  0  0  0  0  0  0  0  0  0  0  0
   -5.2707   -2.8361    0.5339 H   0  0  0  0  0  0  0  0  0  0  0  0
  1  5  1  0
  5  8  1  0
  1  2  1  0
  1  3  1  0
  1  4  1  0
  5  6  1  0
  5  7  1  0
  8  9  1  0
  8 10  1  0
  8 11  1  0
 12 16  1  0
 16 17  1  0
 12 13  1  0
 12 14  1  0
 12 15  1  0
 17 18  1  0
 17 19  1  0
 17 20  1  0
M  CHG  1   8   1
M  END
>  <PDB_ID>  (100) 
pdb1cjl

>  <RESIDUE_NAME>  (100) 
LYS   MET

>  <FRAG_NAME>  (100) 
ETAM   MSM

>  <FRAG_ATOM_NUM>  (100) 
fragi: 11  fragj: 9

>  <atom.prop.CHAIN_ID>  (100) 
A A A A A A A A A A A Z Z Z Z Z Z Z Z Z

>  <atom.prop.IS_HEAVY_ATOM>  (100) 
1 0 0 0 1 0 0 1 0 0 0 1 0 0 0 1 1 0 0 0

>  <DIFUSE_FUNC_ATOM>  (100) 
n/a

>  <FINAL_SINGLE_POINT_ENERGY>  (100) 
0

>  <NONCOV_INTER_ENERGY_QM>  (100) 
0

>  <FF_Energy>  (100) 
-5.66

>  <QM_Energy>  (100) 
-15.49

>  <source>  (100) 
ETAM_MSM

>  <Index>  (100) 
619

$$$$
ETAM-pdb2d0i-B-LYS-66:MSM-pdb2d0i-B-MET-332
     RDKit          3D

 20 18  0  0  0  0  0  0  0  0999 V2000
    1.2462    0.8740    0.0000 C   0  0  0  0  0  0  0  0  0  0  0  0
    1.1895    1.5036   -0.7593 H   0  0  0  0  0  0  0  0  0  0  0  0
    2.0402    0.2905   -0.0736 H   0  0  0  0  0  0  0  0  0  0  0  0
    1.3017    1.4399    0.9300 H   0  0  0  0  0  0  0  0  0  0  0  0
    0.0000    0.0000    0.0000 C   0  0  0  0  0  0  0  0  0  0  0  0
    0.0129   -0.5829   -0.8160 H   0  0  0  0  0  0  0  0  0  0  0  0
    0.0126   -0.5834    0.8160 H   0  0  0  0  0  0  0  0  0  0  0  0
   -1.2462    0.8141   -0.0000 N   0  0  0  0  0  4  0  0  0  0  0  0
   -1.8157    0.5479    0.7774 H   0  0  0  0  0  0  0  0  0  0  0  0
   -1.0096    1.7820    0.0739 H   0  0  0  0  0  0  0  0  0  0  0  0
   -1.7456    0.6557   -0.8514 H   0  0  0  0  0  0  0  0  0  0  0  0
    0.8181   -0.1714   -4.0021 C   0  0  0  0  0  0  0  0  0  0  0  0
    0.2858   -1.0370   -3.9867 H   0  0  0  0  0  0  0  0  0  0  0  0
    1.5832   -0.2837   -3.3421 H   0  0  0  0  0  0  0  0  0  0  0  0
    1.2271   -0.0219   -5.0013 H   0  0  0  0  0  0  0  0  0  0  0  0
   -0.2196    1.2218   -3.5405 S   0  0  0  0  0  0  0  0  0  0  0  0
   -1.6768    0.9364   -4.5448 C   0  0  0  0  0  0  0  0  0  0  0  0
   -1.7130    1.6116   -5.2818 H   0  0  0  0  0  0  0  0  0  0  0  0
   -1.6381    0.0174   -4.9380 H   0  0  0  0  0  0  0  0  0  0  0  0
   -2.4966    1.0203   -3.9766 H   0  0  0  0  0  0  0  0  0  0  0  0
  1  5  1  0
  5  8  1  0
  1  2  1  0
  1  3  1  0
  1  4  1  0
  5  6  1  0
  5  7  1  0
  8  9  1  0
  8 10  1  0
  8 11  1  0
 12 16  1  0
 16 17  1  0
 12 13  1  0
 12 14  1  0
 12 15  1  0
 17 18  1  0
 17 19  1  0
 17 20  1  0
M  CHG  1   8   1
M  END
>  <PDB_ID>  (101) 
pdb2d0i

>  <RESIDUE_NAME>  (101) 
LYS   MET

>  <FRAG_NAME>  (101) 
ETAM   MSM

>  <FRAG_ATOM_NUM>  (101) 
fragi: 11  fragj: 9

>  <atom.prop.CHAIN_ID>  (101) 
A A A A A A A A A A A Z Z Z Z Z Z Z Z Z

>  <atom.prop.IS_HEAVY_ATOM>  (101) 
1 0 0 0 1 0 0 1 0 0 0 1 0 0 0 1 1 0 0 0

>  <DIFUSE_FUNC_ATOM>  (101) 
n/a

>  <FINAL_SINGLE_POINT_ENERGY>  (101) 
0

>  <NONCOV_INTER_ENERGY_QM>  (101) 
0

>  <FF_Energy>  (101) 
-5.09

>  <QM_Energy>  (101) 
-12.39

>  <source>  (101) 
ETAM_MSM

>  <Index>  (101) 
623

$$$$
ETAM-pdb1cfz-D-LYS-67:MSM-pdb1cfz-D-MET-75
     RDKit          3D

 20 18  0  0  0  0  0  0  0  0999 V2000
    1.2544    0.8729    0.0000 C   0  0  0  0  0  0  0  0  0  0  0  0
    1.3351    1.3067    0.8893 H   0  0  0  0  0  0  0  0  0  0  0  0
    1.1631    1.5547   -0.7153 H   0  0  0  0  0  0  0  0  0  0  0  0
    2.1494    0.2795   -0.1869 H   0  0  0  0  0  0  0  0  0  0  0  0
    0.0000    0.0000    0.0000 C   0  0  0  0  0  0  0  0  0  0  0  0
    0.0177   -0.5889   -0.8160 H   0  0  0  0  0  0  0  0  0  0  0  0
    0.0174   -0.5888    0.8162 H   0  0  0  0  0  0  0  0  0  0  0  0
   -1.2544    0.7993    0.0000 N   0  0  0  0  0  4  0  0  0  0  0  0
   -2.0119    0.2288   -0.3152 H   0  0  0  0  0  0  0  0  0  0  0  0
   -1.4427    1.1224    0.9268 H   0  0  0  0  0  0  0  0  0  0  0  0
   -1.1491    1.5826   -0.6127 H   0  0  0  0  0  0  0  0  0  0  0  0
    0.2881    5.0941   -3.1260 C   0  0  0  0  0  0  0  0  0  0  0  0
   -0.7193    5.0839   -3.2605 H   0  0  0  0  0  0  0  0  0  0  0  0
    0.7095    4.9331   -4.0368 H   0  0  0  0  0  0  0  0  0  0  0  0
    0.5928    6.0727   -2.7548 H   0  0  0  0  0  0  0  0  0  0  0  0
    0.7811    3.7863   -1.9655 S   0  0  0  0  0  0  0  0  0  0  0  0
    0.6461    2.4105   -3.1058 C   0  0  0  0  0  0  0  0  0  0  0  0
   -0.3063    2.1061   -3.1534 H   0  0  0  0  0  0  0  0  0  0  0  0
    0.9481    2.6986   -4.0156 H   0  0  0  0  0  0  0  0  0  0  0  0
    1.2203    1.6539   -2.7887 H   0  0  0  0  0  0  0  0  0  0  0  0
  1  5  1  0
  5  8  1  0
  1  2  1  0
  1  3  1  0
  1  4  1  0
  5  6  1  0
  5  7  1  0
  8  9  1  0
  8 10  1  0
  8 11  1  0
 12 16  1  0
 16 17  1  0
 12 13  1  0
 12 14  1  0
 12 15  1  0
 17 18  1  0
 17 19  1  0
 17 20  1  0
M  CHG  1   8   1
M  END
>  <PDB_ID>  (102) 
pdb1cfz

>  <RESIDUE_NAME>  (102) 
LYS   MET

>  <FRAG_NAME>  (102) 
ETAM   MSM

>  <FRAG_ATOM_NUM>  (102) 
fragi: 11  fragj: 9

>  <atom.prop.CHAIN_ID>  (102) 
A A A A A A A A A A A Z Z Z Z Z Z Z Z Z

>  <atom.prop.IS_HEAVY_ATOM>  (102) 
1 0 0 0 1 0 0 1 0 0 0 1 0 0 0 1 1 0 0 0

>  <DIFUSE_FUNC_ATOM>  (102) 
n/a

>  <FINAL_SINGLE_POINT_ENERGY>  (102) 
0

>  <NONCOV_INTER_ENERGY_QM>  (102) 
0

>  <FF_Energy>  (102) 
-1.09

>  <QM_Energy>  (102) 
-6.83

>  <source>  (102) 
ETAM_MSM

>  <Index>  (102) 
633

$$$$
ETAM-pdb1cfz-E-LYS-67:MSM-pdb1cfz-E-MET-75
     RDKit          3D

 20 18  0  0  0  0  0  0  0  0999 V2000
    1.2727    0.8420   -0.0000 C   0  0  0  0  0  0  0  0  0  0  0  0
    1.3278    1.3306    0.8620 H   0  0  0  0  0  0  0  0  0  0  0  0
    1.2301    1.4778   -0.7607 H   0  0  0  0  0  0  0  0  0  0  0  0
    2.1598    0.2181   -0.1093 H   0  0  0  0  0  0  0  0  0  0  0  0
    0.0000    0.0000    0.0000 C   0  0  0  0  0  0  0  0  0  0  0  0
    0.0192   -0.6106   -0.8162 H   0  0  0  0  0  0  0  0  0  0  0  0
    0.0186   -0.6098    0.8165 H   0  0  0  0  0  0  0  0  0  0  0  0
   -1.2727    0.7651   -0.0000 N   0  0  0  0  0  4  0  0  0  0  0  0
   -1.9502    0.2843   -0.5568 H   0  0  0  0  0  0  0  0  0  0  0  0
   -1.6106    0.8494    0.9376 H   0  0  0  0  0  0  0  0  0  0  0  0
   -1.1138    1.6764   -0.3812 H   0  0  0  0  0  0  0  0  0  0  0  0
    0.4417    4.8394   -3.3732 C   0  0  0  0  0  0  0  0  0  0  0  0
   -0.5664    4.9282   -3.3829 H   0  0  0  0  0  0  0  0  0  0  0  0
    0.7340    4.5745   -4.3055 H   0  0  0  0  0  0  0  0  0  0  0  0
    0.8819    5.8044   -3.1219 H   0  0  0  0  0  0  0  0  0  0  0  0
    0.9558    3.5735   -2.1639 S   0  0  0  0  0  0  0  0  0  0  0  0
    0.7705    2.1512   -3.2364 C   0  0  0  0  0  0  0  0  0  0  0  0
    1.6553    1.6947   -3.3449 H   0  0  0  0  0  0  0  0  0  0  0  0
    0.1137    1.5109   -2.8348 H   0  0  0  0  0  0  0  0  0  0  0  0
    0.4381    2.4482   -4.1328 H   0  0  0  0  0  0  0  0  0  0  0  0
  1  5  1  0
  5  8  1  0
  1  2  1  0
  1  3  1  0
  1  4  1  0
  5  6  1  0
  5  7  1  0
  8  9  1  0
  8 10  1  0
  8 11  1  0
 12 16  1  0
 16 17  1  0
 12 13  1  0
 12 14  1  0
 12 15  1  0
 17 18  1  0
 17 19  1  0
 17 20  1  0
M  CHG  1   8   1
M  END
>  <PDB_ID>  (103) 
pdb1cfz

>  <RESIDUE_NAME>  (103) 
LYS   MET

>  <FRAG_NAME>  (103) 
ETAM   MSM

>  <FRAG_ATOM_NUM>  (103) 
fragi: 11  fragj: 9

>  <atom.prop.CHAIN_ID>  (103) 
A A A A A A A A A A A Z Z Z Z Z Z Z Z Z

>  <atom.prop.IS_HEAVY_ATOM>  (103) 
1 0 0 0 1 0 0 1 0 0 0 1 0 0 0 1 1 0 0 0

>  <DIFUSE_FUNC_ATOM>  (103) 
n/a

>  <FINAL_SINGLE_POINT_ENERGY>  (103) 
0

>  <NONCOV_INTER_ENERGY_QM>  (103) 
0

>  <FF_Energy>  (103) 
-0.74

>  <QM_Energy>  (103) 
-6.84

>  <source>  (103) 
ETAM_MSM

>  <Index>  (103) 
642

$$$$
ETAM-pdb1cm7-A-MET-1:MSM-pdb1cm7-A-MET-36
     RDKit          3D

 20 18  0  0  0  0  0  0  0  0999 V2000
    1.2402    0.9043   -0.0000 C   0  0  0  0  0  0  0  0  0  0  0  0
    1.3083    1.3648   -0.8948 H   0  0  0  0  0  0  0  0  0  0  0  0
    1.1274    1.6126    0.7093 H   0  0  0  0  0  0  0  0  0  0  0  0
    2.1780    0.3809    0.1865 H   0  0  0  0  0  0  0  0  0  0  0  0
    0.0000    0.0000    0.0000 C   0  0  0  0  0  0  0  0  0  0  0  0
   -0.0125   -0.5499   -0.8421 H   0  0  0  0  0  0  0  0  0  0  0  0
    0.0366   -0.6803    0.8508 H   0  0  0  0  0  0  0  0  0  0  0  0
   -1.2402    0.8445    0.0000 N   0  0  0  0  0  4  0  0  0  0  0  0
   -1.5038    1.0293    0.9418 H   0  0  0  0  0  0  0  0  0  0  0  0
   -1.0486    1.6985   -0.4743 H   0  0  0  0  0  0  0  0  0  0  0  0
   -1.9668    0.3497   -0.4670 H   0  0  0  0  0  0  0  0  0  0  0  0
   -0.6774   -2.7090   -1.9983 C   0  0  0  0  0  0  0  0  0  0  0  0
   -1.1426   -2.7654   -1.0923 H   0  0  0  0  0  0  0  0  0  0  0  0
    0.2479   -2.3180   -1.8224 H   0  0  0  0  0  0  0  0  0  0  0  0
   -0.5598   -3.7185   -2.3921 H   0  0  0  0  0  0  0  0  0  0  0  0
   -1.6027   -1.6844   -3.1328 S   0  0  0  0  0  0  0  0  0  0  0  0
   -3.1891   -2.0480   -2.5868 C   0  0  0  0  0  0  0  0  0  0  0  0
   -3.2954   -1.8568   -1.5968 H   0  0  0  0  0  0  0  0  0  0  0  0
   -3.8873   -1.4990   -3.0770 H   0  0  0  0  0  0  0  0  0  0  0  0
   -3.4181   -3.0255   -2.7315 H   0  0  0  0  0  0  0  0  0  0  0  0
  1  5  1  0
  5  8  1  0
  1  2  1  0
  1  3  1  0
  1  4  1  0
  5  6  1  0
  5  7  1  0
  8  9  1  0
  8 10  1  0
  8 11  1  0
 12 16  1  0
 16 17  1  0
 12 13  1  0
 12 14  1  0
 12 15  1  0
 17 18  1  0
 17 19  1  0
 17 20  1  0
M  CHG  1   8   1
M  END
>  <PDB_ID>  (104) 
pdb1cm7

>  <RESIDUE_NAME>  (104) 
MET   MET

>  <FRAG_NAME>  (104) 
ETAM   MSM

>  <FRAG_ATOM_NUM>  (104) 
fragi: 11  fragj: 9

>  <atom.prop.CHAIN_ID>  (104) 
A A A A A A A A A A A Z Z Z Z Z Z Z Z Z

>  <atom.prop.IS_HEAVY_ATOM>  (104) 
1 0 0 0 1 0 0 1 0 0 0 1 0 0 0 1 1 0 0 0

>  <DIFUSE_FUNC_ATOM>  (104) 
n/a

>  <FINAL_SINGLE_POINT_ENERGY>  (104) 
0

>  <NONCOV_INTER_ENERGY_QM>  (104) 
0

>  <FF_Energy>  (104) 
-1.14

>  <QM_Energy>  (104) 
-6.31

>  <source>  (104) 
ETAM_MSM

>  <Index>  (104) 
643

$$$$
ETAM-pdb1cm7-B-LYS-235:MSM-pdb1cm7-A-MET-259
     RDKit          3D

 20 18  0  0  0  0  0  0  0  0999 V2000
    1.2484    0.8616    0.0000 C   0  0  0  0  0  0  0  0  0  0  0  0
    1.2896    1.3624   -0.8587 H   0  0  0  0  0  0  0  0  0  0  0  0
    2.0432    0.2708    0.0928 H   0  0  0  0  0  0  0  0  0  0  0  0
    1.2412    1.5752    0.8240 H   0  0  0  0  0  0  0  0  0  0  0  0
    0.0000    0.0000    0.0000 C   0  0  0  0  0  0  0  0  0  0  0  0
   -0.0037   -0.5781   -0.8164 H   0  0  0  0  0  0  0  0  0  0  0  0
   -0.0043   -0.5780    0.8163 H   0  0  0  0  0  0  0  0  0  0  0  0
   -1.2484    0.8436   -0.0000 N   0  0  0  0  0  4  0  0  0  0  0  0
   -0.9887    1.8047   -0.0428 H   0  0  0  0  0  0  0  0  0  0  0  0
   -1.7999    0.6028   -0.7938 H   0  0  0  0  0  0  0  0  0  0  0  0
   -1.7588    0.6646    0.8368 H   0  0  0  0  0  0  0  0  0  0  0  0
    4.8244   -1.6750    3.2580 C   0  0  0  0  0  0  0  0  0  0  0  0
    3.9484   -1.9341    3.7350 H   0  0  0  0  0  0  0  0  0  0  0  0
    5.2743   -0.9918    3.8848 H   0  0  0  0  0  0  0  0  0  0  0  0
    5.4584   -2.5600    3.2051 H   0  0  0  0  0  0  0  0  0  0  0  0
    4.4695   -0.9188    1.6446 S   0  0  0  0  0  0  0  0  0  0  0  0
    3.0383   -1.7802    1.1790 C   0  0  0  0  0  0  0  0  0  0  0  0
    2.5187   -1.2703    0.4771 H   0  0  0  0  0  0  0  0  0  0  0  0
    3.2676   -2.6871    0.7959 H   0  0  0  0  0  0  0  0  0  0  0  0
    2.4267   -1.9259    1.9712 H   0  0  0  0  0  0  0  0  0  0  0  0
  1  5  1  0
  5  8  1  0
  1  2  1  0
  1  3  1  0
  1  4  1  0
  5  6  1  0
  5  7  1  0
  8  9  1  0
  8 10  1  0
  8 11  1  0
 12 16  1  0
 16 17  1  0
 12 13  1  0
 12 14  1  0
 12 15  1  0
 17 18  1  0
 17 19  1  0
 17 20  1  0
M  CHG  1   8   1
M  END
>  <PDB_ID>  (105) 
pdb1cm7

>  <RESIDUE_NAME>  (105) 
LYS   MET

>  <FRAG_NAME>  (105) 
ETAM   MSM

>  <FRAG_ATOM_NUM>  (105) 
fragi: 11  fragj: 9

>  <atom.prop.CHAIN_ID>  (105) 
A A A A A A A A A A A Z Z Z Z Z Z Z Z Z

>  <atom.prop.IS_HEAVY_ATOM>  (105) 
1 0 0 0 1 0 0 1 0 0 0 1 0 0 0 1 1 0 0 0

>  <DIFUSE_FUNC_ATOM>  (105) 
n/a

>  <FINAL_SINGLE_POINT_ENERGY>  (105) 
0

>  <NONCOV_INTER_ENERGY_QM>  (105) 
0

>  <FF_Energy>  (105) 
8.18

>  <QM_Energy>  (105) 
1.23

>  <source>  (105) 
ETAM_MSM

>  <Index>  (105) 
644

$$$$
ETAM-pdb2d4v-A-LYS-199:MSM-pdb2d4v-A-MET-234
     RDKit          3D

 20 18  0  0  0  0  0  0  0  0999 V2000
    1.2674    0.8901   -0.0000 C   0  0  0  0  0  0  0  0  0  0  0  0
    1.1170    1.6490   -0.6218 H   0  0  0  0  0  0  0  0  0  0  0  0
    2.0367    0.3383   -0.2983 H   0  0  0  0  0  0  0  0  0  0  0  0
    1.4939    1.2933    0.9870 H   0  0  0  0  0  0  0  0  0  0  0  0
    0.0000    0.0000    0.0000 C   0  0  0  0  0  0  0  0  0  0  0  0
    0.0442   -0.5988   -0.8161 H   0  0  0  0  0  0  0  0  0  0  0  0
    0.0434   -0.5985    0.8159 H   0  0  0  0  0  0  0  0  0  0  0  0
   -1.2674    0.7501   -0.0000 N   0  0  0  0  0  4  0  0  0  0  0  0
   -1.3965    1.1991   -0.8870 H   0  0  0  0  0  0  0  0  0  0  0  0
   -2.0323    0.1240    0.1659 H   0  0  0  0  0  0  0  0  0  0  0  0
   -1.2497    1.4456    0.7207 H   0  0  0  0  0  0  0  0  0  0  0  0
    1.3045   -1.1224   -4.2038 C   0  0  0  0  0  0  0  0  0  0  0  0
    2.1994   -0.8282   -3.8038 H   0  0  0  0  0  0  0  0  0  0  0  0
    1.4109   -1.0406   -5.2183 H   0  0  0  0  0  0  0  0  0  0  0  0
    1.1537   -2.1742   -3.9610 H   0  0  0  0  0  0  0  0  0  0  0  0
   -0.0464   -0.0504   -3.6122 S   0  0  0  0  0  0  0  0  0  0  0  0
   -1.2749   -0.4739   -4.8353 C   0  0  0  0  0  0  0  0  0  0  0  0
   -1.4056    0.2950   -5.4654 H   0  0  0  0  0  0  0  0  0  0  0  0
   -0.9738   -1.2770   -5.3543 H   0  0  0  0  0  0  0  0  0  0  0  0
   -2.1452   -0.6812   -4.3842 H   0  0  0  0  0  0  0  0  0  0  0  0
  1  5  1  0
  5  8  1  0
  1  2  1  0
  1  3  1  0
  1  4  1  0
  5  6  1  0
  5  7  1  0
  8  9  1  0
  8 10  1  0
  8 11  1  0
 12 16  1  0
 16 17  1  0
 12 13  1  0
 12 14  1  0
 12 15  1  0
 17 18  1  0
 17 19  1  0
 17 20  1  0
M  CHG  1   8   1
M  END
>  <PDB_ID>  (106) 
pdb2d4v

>  <RESIDUE_NAME>  (106) 
LYS   MET

>  <FRAG_NAME>  (106) 
ETAM   MSM

>  <FRAG_ATOM_NUM>  (106) 
fragi: 11  fragj: 9

>  <atom.prop.CHAIN_ID>  (106) 
A A A A A A A A A A A Z Z Z Z Z Z Z Z Z

>  <atom.prop.IS_HEAVY_ATOM>  (106) 
1 0 0 0 1 0 0 1 0 0 0 1 0 0 0 1 1 0 0 0

>  <DIFUSE_FUNC_ATOM>  (106) 
n/a

>  <FINAL_SINGLE_POINT_ENERGY>  (106) 
0

>  <NONCOV_INTER_ENERGY_QM>  (106) 
0

>  <FF_Energy>  (106) 
-4.93

>  <QM_Energy>  (106) 
-10.91

>  <source>  (106) 
ETAM_MSM

>  <Index>  (106) 
649

$$$$
ETAM-pdb2d4v-B-LYS-199:MSM-pdb2d4v-B-MET-234
     RDKit          3D

 20 18  0  0  0  0  0  0  0  0999 V2000
    1.2747    0.8821   -0.0000 C   0  0  0  0  0  0  0  0  0  0  0  0
    1.1283    1.6362   -0.6373 H   0  0  0  0  0  0  0  0  0  0  0  0
    2.0388    0.3200   -0.3110 H   0  0  0  0  0  0  0  0  0  0  0  0
    1.5192    1.2946    0.9788 H   0  0  0  0  0  0  0  0  0  0  0  0
    0.0000    0.0000    0.0000 C   0  0  0  0  0  0  0  0  0  0  0  0
    0.0240   -0.5876   -0.8161 H   0  0  0  0  0  0  0  0  0  0  0  0
    0.0230   -0.5869    0.8165 H   0  0  0  0  0  0  0  0  0  0  0  0
   -1.2747    0.7933    0.0000 N   0  0  0  0  0  4  0  0  0  0  0  0
   -1.4329    1.1543    0.9166 H   0  0  0  0  0  0  0  0  0  0  0  0
   -1.1903    1.5438   -0.6513 H   0  0  0  0  0  0  0  0  0  0  0  0
   -2.0285    0.1963   -0.2652 H   0  0  0  0  0  0  0  0  0  0  0  0
    1.2301   -1.1771   -4.1801 C   0  0  0  0  0  0  0  0  0  0  0  0
    2.1396   -0.8902   -3.7865 H   0  0  0  0  0  0  0  0  0  0  0  0
    1.3453   -1.0751   -5.2005 H   0  0  0  0  0  0  0  0  0  0  0  0
    1.0931   -2.2367   -3.9642 H   0  0  0  0  0  0  0  0  0  0  0  0
   -0.0996   -0.1044   -3.5737 S   0  0  0  0  0  0  0  0  0  0  0  0
   -1.3993   -0.5056   -4.8157 C   0  0  0  0  0  0  0  0  0  0  0  0
   -1.4190    0.2221   -5.4904 H   0  0  0  0  0  0  0  0  0  0  0  0
   -1.1654   -1.3720   -5.2413 H   0  0  0  0  0  0  0  0  0  0  0  0
   -2.2704   -0.5706   -4.3441 H   0  0  0  0  0  0  0  0  0  0  0  0
  1  5  1  0
  5  8  1  0
  1  2  1  0
  1  3  1  0
  1  4  1  0
  5  6  1  0
  5  7  1  0
  8  9  1  0
  8 10  1  0
  8 11  1  0
 12 16  1  0
 16 17  1  0
 12 13  1  0
 12 14  1  0
 12 15  1  0
 17 18  1  0
 17 19  1  0
 17 20  1  0
M  CHG  1   8   1
M  END
>  <PDB_ID>  (107) 
pdb2d4v

>  <RESIDUE_NAME>  (107) 
LYS   MET

>  <FRAG_NAME>  (107) 
ETAM   MSM

>  <FRAG_ATOM_NUM>  (107) 
fragi: 11  fragj: 9

>  <atom.prop.CHAIN_ID>  (107) 
A A A A A A A A A A A Z Z Z Z Z Z Z Z Z

>  <atom.prop.IS_HEAVY_ATOM>  (107) 
1 0 0 0 1 0 0 1 0 0 0 1 0 0 0 1 1 0 0 0

>  <DIFUSE_FUNC_ATOM>  (107) 
n/a

>  <FINAL_SINGLE_POINT_ENERGY>  (107) 
0

>  <NONCOV_INTER_ENERGY_QM>  (107) 
0

>  <FF_Energy>  (107) 
-4.76

>  <QM_Energy>  (107) 
-10.72

>  <source>  (107) 
ETAM_MSM

>  <Index>  (107) 
652

$$$$
ETAM-pdb2d0i-C-LYS-66:MSM-pdb2d0i-C-MET-332
     RDKit          3D

 20 18  0  0  0  0  0  0  0  0999 V2000
    1.2482    0.8577    0.0000 C   0  0  0  0  0  0  0  0  0  0  0  0
    1.2104    1.4802   -0.7736 H   0  0  0  0  0  0  0  0  0  0  0  0
    2.0439    0.2670   -0.0673 H   0  0  0  0  0  0  0  0  0  0  0  0
    1.3240    1.4434    0.9162 H   0  0  0  0  0  0  0  0  0  0  0  0
    0.0000    0.0000    0.0000 C   0  0  0  0  0  0  0  0  0  0  0  0
    0.0134   -0.5939   -0.8161 H   0  0  0  0  0  0  0  0  0  0  0  0
    0.0122   -0.5942    0.8170 H   0  0  0  0  0  0  0  0  0  0  0  0
   -1.2482    0.7977    0.0000 N   0  0  0  0  0  4  0  0  0  0  0  0
   -1.3135    1.3177    0.8530 H   0  0  0  0  0  0  0  0  0  0  0  0
   -1.2411    1.4314   -0.7752 H   0  0  0  0  0  0  0  0  0  0  0  0
   -2.0368    0.1863   -0.0779 H   0  0  0  0  0  0  0  0  0  0  0  0
    0.9012   -0.6951   -4.2706 C   0  0  0  0  0  0  0  0  0  0  0  0
    0.2213   -1.4453   -4.3953 H   0  0  0  0  0  0  0  0  0  0  0  0
    1.5627   -1.0225   -3.5671 H   0  0  0  0  0  0  0  0  0  0  0  0
    1.4329   -0.5437   -5.2099 H   0  0  0  0  0  0  0  0  0  0  0  0
    0.0817    0.8200   -3.7170 S   0  0  0  0  0  0  0  0  0  0  0  0
   -1.5291    0.6801   -4.4743 C   0  0  0  0  0  0  0  0  0  0  0  0
   -2.1060    1.4481   -4.1886 H   0  0  0  0  0  0  0  0  0  0  0  0
   -1.4367    0.6912   -5.4722 H   0  0  0  0  0  0  0  0  0  0  0  0
   -1.9624   -0.1794   -4.1934 H   0  0  0  0  0  0  0  0  0  0  0  0
  1  5  1  0
  5  8  1  0
  1  2  1  0
  1  3  1  0
  1  4  1  0
  5  6  1  0
  5  7  1  0
  8  9  1  0
  8 10  1  0
  8 11  1  0
 12 16  1  0
 16 17  1  0
 12 13  1  0
 12 14  1  0
 12 15  1  0
 17 18  1  0
 17 19  1  0
 17 20  1  0
M  CHG  1   8   1
M  END
>  <PDB_ID>  (108) 
pdb2d0i

>  <RESIDUE_NAME>  (108) 
LYS   MET

>  <FRAG_NAME>  (108) 
ETAM   MSM

>  <FRAG_ATOM_NUM>  (108) 
fragi: 11  fragj: 9

>  <atom.prop.CHAIN_ID>  (108) 
A A A A A A A A A A A Z Z Z Z Z Z Z Z Z

>  <atom.prop.IS_HEAVY_ATOM>  (108) 
1 0 0 0 1 0 0 1 0 0 0 1 0 0 0 1 1 0 0 0

>  <DIFUSE_FUNC_ATOM>  (108) 
n/a

>  <FINAL_SINGLE_POINT_ENERGY>  (108) 
0

>  <NONCOV_INTER_ENERGY_QM>  (108) 
0

>  <FF_Energy>  (108) 
-4.6

>  <QM_Energy>  (108) 
-10.68

>  <source>  (108) 
ETAM_MSM

>  <Index>  (108) 
654

$$$$
ETAM-pdb1cm8-A-LYS-168:MSM-pdb1cm8-A-MET-112
     RDKit          3D

 20 18  0  0  0  0  0  0  0  0999 V2000
    1.2734    0.8552   -0.0000 C   0  0  0  0  0  0  0  0  0  0  0  0
    2.0362    0.2805    0.2962 H   0  0  0  0  0  0  0  0  0  0  0  0
    1.1466    1.6040    0.6493 H   0  0  0  0  0  0  0  0  0  0  0  0
    1.5081    1.2735   -0.9788 H   0  0  0  0  0  0  0  0  0  0  0  0
    0.0000    0.0000    0.0000 C   0  0  0  0  0  0  0  0  0  0  0  0
    0.0033   -0.5884   -0.8167 H   0  0  0  0  0  0  0  0  0  0  0  0
    0.0035   -0.5882    0.8166 H   0  0  0  0  0  0  0  0  0  0  0  0
   -1.2734    0.8179    0.0000 N   0  0  0  0  0  4  0  0  0  0  0  0
   -1.0352    1.7787   -0.1051 H   0  0  0  0  0  0  0  0  0  0  0  0
   -1.8444    0.5187   -0.7585 H   0  0  0  0  0  0  0  0  0  0  0  0
   -1.7453    0.6727    0.8640 H   0  0  0  0  0  0  0  0  0  0  0  0
    3.9464    0.6794    2.3942 C   0  0  0  0  0  0  0  0  0  0  0  0
    3.3947    0.8921    3.2274 H   0  0  0  0  0  0  0  0  0  0  0  0
    3.7763    1.4446    1.7391 H   0  0  0  0  0  0  0  0  0  0  0  0
    5.0029    0.6710    2.6624 H   0  0  0  0  0  0  0  0  0  0  0  0
    3.4801   -0.8743    1.6973 S   0  0  0  0  0  0  0  0  0  0  0  0
    4.6738   -1.0538    0.3529 C   0  0  0  0  0  0  0  0  0  0  0  0
    4.4856   -1.8998   -0.1421 H   0  0  0  0  0  0  0  0  0  0  0  0
    4.5901   -0.2749   -0.2661 H   0  0  0  0  0  0  0  0  0  0  0  0
    5.5959   -1.0836    0.7348 H   0  0  0  0  0  0  0  0  0  0  0  0
  1  5  1  0
  5  8  1  0
  1  2  1  0
  1  3  1  0
  1  4  1  0
  5  6  1  0
  5  7  1  0
  8  9  1  0
  8 10  1  0
  8 11  1  0
 12 16  1  0
 16 17  1  0
 12 13  1  0
 12 14  1  0
 12 15  1  0
 17 18  1  0
 17 19  1  0
 17 20  1  0
M  CHG  1   8   1
M  END
>  <PDB_ID>  (109) 
pdb1cm8

>  <RESIDUE_NAME>  (109) 
LYS   MET

>  <FRAG_NAME>  (109) 
ETAM   MSM

>  <FRAG_ATOM_NUM>  (109) 
fragi: 11  fragj: 9

>  <atom.prop.CHAIN_ID>  (109) 
A A A A A A A A A A A Z Z Z Z Z Z Z Z Z

>  <atom.prop.IS_HEAVY_ATOM>  (109) 
1 0 0 0 1 0 0 1 0 0 0 1 0 0 0 1 1 0 0 0

>  <DIFUSE_FUNC_ATOM>  (109) 
n/a

>  <FINAL_SINGLE_POINT_ENERGY>  (109) 
0

>  <NONCOV_INTER_ENERGY_QM>  (109) 
0

>  <FF_Energy>  (109) 
4.41

>  <QM_Energy>  (109) 
-3.95

>  <source>  (109) 
ETAM_MSM

>  <Index>  (109) 
655

$$$$
ETAM-pdb2d59-A-LYS-119:MSM-pdb2d59-A-MET-91
     RDKit          3D

 20 18  0  0  0  0  0  0  0  0999 V2000
    1.2466    0.8705    0.0000 C   0  0  0  0  0  0  0  0  0  0  0  0
    1.2369    1.4388    0.8155 H   0  0  0  0  0  0  0  0  0  0  0  0
    1.2379    1.4366   -0.8177 H   0  0  0  0  0  0  0  0  0  0  0  0
    2.1532    0.2653    0.0025 H   0  0  0  0  0  0  0  0  0  0  0  0
    0.0000    0.0000    0.0000 C   0  0  0  0  0  0  0  0  0  0  0  0
    0.0111   -0.5843   -0.8164 H   0  0  0  0  0  0  0  0  0  0  0  0
    0.0101   -0.5834    0.8163 H   0  0  0  0  0  0  0  0  0  0  0  0
   -1.2466    0.8156   -0.0000 N   0  0  0  0  0  4  0  0  0  0  0  0
   -1.1112    1.6275    0.5667 H   0  0  0  0  0  0  0  0  0  0  0  0
   -1.4611    1.0922   -0.9366 H   0  0  0  0  0  0  0  0  0  0  0  0
   -1.9979    0.2710    0.3695 H   0  0  0  0  0  0  0  0  0  0  0  0
   -2.0623    2.6298    3.9807 C   0  0  0  0  0  0  0  0  0  0  0  0
   -2.9575    2.1254    3.9446 H   0  0  0  0  0  0  0  0  0  0  0  0
   -2.1987    3.4614    3.3917 H   0  0  0  0  0  0  0  0  0  0  0  0
   -1.8940    2.9579    5.0064 H   0  0  0  0  0  0  0  0  0  0  0  0
   -0.7260    1.6010    3.3290 S   0  0  0  0  0  0  0  0  0  0  0  0
   -1.3238   -0.0376    3.7569 C   0  0  0  0  0  0  0  0  0  0  0  0
   -2.2654    0.0269    4.0875 H   0  0  0  0  0  0  0  0  0  0  0  0
   -1.2946   -0.6248    2.9481 H   0  0  0  0  0  0  0  0  0  0  0  0
   -0.7443   -0.4272    4.4734 H   0  0  0  0  0  0  0  0  0  0  0  0
  1  5  1  0
  5  8  1  0
  1  2  1  0
  1  3  1  0
  1  4  1  0
  5  6  1  0
  5  7  1  0
  8  9  1  0
  8 10  1  0
  8 11  1  0
 12 16  1  0
 16 17  1  0
 12 13  1  0
 12 14  1  0
 12 15  1  0
 17 18  1  0
 17 19  1  0
 17 20  1  0
M  CHG  1   8   1
M  END
>  <PDB_ID>  (110) 
pdb2d59

>  <RESIDUE_NAME>  (110) 
LYS   MET

>  <FRAG_NAME>  (110) 
ETAM   MSM

>  <FRAG_ATOM_NUM>  (110) 
fragi: 11  fragj: 9

>  <atom.prop.CHAIN_ID>  (110) 
A A A A A A A A A A A Z Z Z Z Z Z Z Z Z

>  <atom.prop.IS_HEAVY_ATOM>  (110) 
1 0 0 0 1 0 0 1 0 0 0 1 0 0 0 1 1 0 0 0

>  <DIFUSE_FUNC_ATOM>  (110) 
n/a

>  <FINAL_SINGLE_POINT_ENERGY>  (110) 
0

>  <NONCOV_INTER_ENERGY_QM>  (110) 
0

>  <FF_Energy>  (110) 
-4.88

>  <QM_Energy>  (110) 
-13.08

>  <source>  (110) 
ETAM_MSM

>  <Index>  (110) 
658

$$$$
ETAM-pdb1cfz-F-LYS-67:MSM-pdb1cfz-F-MET-75
     RDKit          3D

 20 18  0  0  0  0  0  0  0  0999 V2000
    1.2615    0.8542    0.0000 C   0  0  0  0  0  0  0  0  0  0  0  0
    1.3310    1.3178    0.8730 H   0  0  0  0  0  0  0  0  0  0  0  0
    1.2022    1.5065   -0.7444 H   0  0  0  0  0  0  0  0  0  0  0  0
    2.1481    0.2361   -0.1414 H   0  0  0  0  0  0  0  0  0  0  0  0
    0.0000    0.0000    0.0000 C   0  0  0  0  0  0  0  0  0  0  0  0
    0.0154   -0.5985   -0.8162 H   0  0  0  0  0  0  0  0  0  0  0  0
    0.0148   -0.5988    0.8161 H   0  0  0  0  0  0  0  0  0  0  0  0
   -1.2615    0.7876   -0.0000 N   0  0  0  0  0  4  0  0  0  0  0  0
   -1.5359    0.9757   -0.9430 H   0  0  0  0  0  0  0  0  0  0  0  0
   -1.9798    0.2642    0.4589 H   0  0  0  0  0  0  0  0  0  0  0  0
   -1.1145    1.6505    0.4844 H   0  0  0  0  0  0  0  0  0  0  0  0
    0.4999    5.0293   -3.2370 C   0  0  0  0  0  0  0  0  0  0  0  0
   -0.5033    5.0845   -3.3772 H   0  0  0  0  0  0  0  0  0  0  0  0
    0.9175    4.8279   -4.1392 H   0  0  0  0  0  0  0  0  0  0  0  0
    0.8669    5.9897   -2.8749 H   0  0  0  0  0  0  0  0  0  0  0  0
    0.8951    3.6937   -2.0498 S   0  0  0  0  0  0  0  0  0  0  0  0
    0.8346    2.3403   -3.2131 C   0  0  0  0  0  0  0  0  0  0  0  0
    1.4348    2.5357   -3.9917 H   0  0  0  0  0  0  0  0  0  0  0  0
    1.1389    1.4961   -2.7669 H   0  0  0  0  0  0  0  0  0  0  0  0
   -0.1039    2.2188   -3.5429 H   0  0  0  0  0  0  0  0  0  0  0  0
  1  5  1  0
  5  8  1  0
  1  2  1  0
  1  3  1  0
  1  4  1  0
  5  6  1  0
  5  7  1  0
  8  9  1  0
  8 10  1  0
  8 11  1  0
 12 16  1  0
 16 17  1  0
 12 13  1  0
 12 14  1  0
 12 15  1  0
 17 18  1  0
 17 19  1  0
 17 20  1  0
M  CHG  1   8   1
M  END
>  <PDB_ID>  (111) 
pdb1cfz

>  <RESIDUE_NAME>  (111) 
LYS   MET

>  <FRAG_NAME>  (111) 
ETAM   MSM

>  <FRAG_ATOM_NUM>  (111) 
fragi: 11  fragj: 9

>  <atom.prop.CHAIN_ID>  (111) 
A A A A A A A A A A A Z Z Z Z Z Z Z Z Z

>  <atom.prop.IS_HEAVY_ATOM>  (111) 
1 0 0 0 1 0 0 1 0 0 0 1 0 0 0 1 1 0 0 0

>  <DIFUSE_FUNC_ATOM>  (111) 
n/a

>  <FINAL_SINGLE_POINT_ENERGY>  (111) 
0

>  <NONCOV_INTER_ENERGY_QM>  (111) 
0

>  <FF_Energy>  (111) 
-0.79

>  <QM_Energy>  (111) 
-5.97

>  <source>  (111) 
ETAM_MSM

>  <Index>  (111) 
660

$$$$
ETAM-pdb2d0i-D-LYS-66:MSM-pdb2d0i-D-MET-332
     RDKit          3D

 20 18  0  0  0  0  0  0  0  0999 V2000
    1.2612    0.8563    0.0000 C   0  0  0  0  0  0  0  0  0  0  0  0
    1.2447    1.4421   -0.8005 H   0  0  0  0  0  0  0  0  0  0  0  0
    2.0495    0.2548   -0.0199 H   0  0  0  0  0  0  0  0  0  0  0  0
    1.3086    1.4775    0.8944 H   0  0  0  0  0  0  0  0  0  0  0  0
    0.0000    0.0000    0.0000 C   0  0  0  0  0  0  0  0  0  0  0  0
    0.0068   -0.5903   -0.8162 H   0  0  0  0  0  0  0  0  0  0  0  0
    0.0062   -0.5906    0.8162 H   0  0  0  0  0  0  0  0  0  0  0  0
   -1.2612    0.8105   -0.0000 N   0  0  0  0  0  4  0  0  0  0  0  0
   -2.0324    0.2138    0.2125 H   0  0  0  0  0  0  0  0  0  0  0  0
   -1.1880    1.5280    0.6890 H   0  0  0  0  0  0  0  0  0  0  0  0
   -1.3870    1.2179   -0.9020 H   0  0  0  0  0  0  0  0  0  0  0  0
    0.7449   -0.7895   -3.7186 C   0  0  0  0  0  0  0  0  0  0  0  0
    0.1568   -1.6065   -3.5700 H   0  0  0  0  0  0  0  0  0  0  0  0
    1.5021   -0.8471   -3.0419 H   0  0  0  0  0  0  0  0  0  0  0  0
    1.1623   -0.8299   -4.7248 H   0  0  0  0  0  0  0  0  0  0  0  0
   -0.2095    0.7305   -3.4740 S   0  0  0  0  0  0  0  0  0  0  0  0
   -1.6753    0.3901   -4.4170 C   0  0  0  0  0  0  0  0  0  0  0  0
   -2.2537   -0.2677   -3.9276 H   0  0  0  0  0  0  0  0  0  0  0  0
   -2.1952    1.2367   -4.5607 H   0  0  0  0  0  0  0  0  0  0  0  0
   -1.4274    0.0050   -5.3099 H   0  0  0  0  0  0  0  0  0  0  0  0
  1  5  1  0
  5  8  1  0
  1  2  1  0
  1  3  1  0
  1  4  1  0
  5  6  1  0
  5  7  1  0
  8  9  1  0
  8 10  1  0
  8 11  1  0
 12 16  1  0
 16 17  1  0
 12 13  1  0
 12 14  1  0
 12 15  1  0
 17 18  1  0
 17 19  1  0
 17 20  1  0
M  CHG  1   8   1
M  END
>  <PDB_ID>  (112) 
pdb2d0i

>  <RESIDUE_NAME>  (112) 
LYS   MET

>  <FRAG_NAME>  (112) 
ETAM   MSM

>  <FRAG_ATOM_NUM>  (112) 
fragi: 11  fragj: 9

>  <atom.prop.CHAIN_ID>  (112) 
A A A A A A A A A A A Z Z Z Z Z Z Z Z Z

>  <atom.prop.IS_HEAVY_ATOM>  (112) 
1 0 0 0 1 0 0 1 0 0 0 1 0 0 0 1 1 0 0 0

>  <DIFUSE_FUNC_ATOM>  (112) 
n/a

>  <FINAL_SINGLE_POINT_ENERGY>  (112) 
0

>  <NONCOV_INTER_ENERGY_QM>  (112) 
0

>  <FF_Energy>  (112) 
-5.11

>  <QM_Energy>  (112) 
-13.42

>  <source>  (112) 
ETAM_MSM

>  <Index>  (112) 
665

$$$$
ETAM-pdb1cm8-B-LYS-1168:MSM-pdb1cm8-B-MET-1112
     RDKit          3D

 20 18  0  0  0  0  0  0  0  0999 V2000
    1.2665    0.8613    0.0000 C   0  0  0  0  0  0  0  0  0  0  0  0
    2.0364    0.2884    0.2775 H   0  0  0  0  0  0  0  0  0  0  0  0
    1.1425    1.6016    0.6578 H   0  0  0  0  0  0  0  0  0  0  0  0
    1.4852    1.2924   -0.9770 H   0  0  0  0  0  0  0  0  0  0  0  0
    0.0000    0.0000    0.0000 C   0  0  0  0  0  0  0  0  0  0  0  0
    0.0069   -0.5866   -0.8166 H   0  0  0  0  0  0  0  0  0  0  0  0
    0.0064   -0.5860    0.8163 H   0  0  0  0  0  0  0  0  0  0  0  0
   -1.2665    0.8169    0.0000 N   0  0  0  0  0  4  0  0  0  0  0  0
   -1.1098    1.6541   -0.5168 H   0  0  0  0  0  0  0  0  0  0  0  0
   -1.9937    0.2833   -0.4245 H   0  0  0  0  0  0  0  0  0  0  0  0
   -1.5082    1.0368    0.9415 H   0  0  0  0  0  0  0  0  0  0  0  0
    3.9805    0.6307    2.3494 C   0  0  0  0  0  0  0  0  0  0  0  0
    3.4058    0.8069    3.1706 H   0  0  0  0  0  0  0  0  0  0  0  0
    3.8004    1.3907    1.6977 H   0  0  0  0  0  0  0  0  0  0  0  0
    5.0326    0.6361    2.6345 H   0  0  0  0  0  0  0  0  0  0  0  0
    3.5372   -0.9541    1.6019 S   0  0  0  0  0  0  0  0  0  0  0  0
    4.6853   -1.0812    0.3048 C   0  0  0  0  0  0  0  0  0  0  0  0
    4.2401   -0.9289   -0.5899 H   0  0  0  0  0  0  0  0  0  0  0  0
    5.4231   -0.3976    0.4047 H   0  0  0  0  0  0  0  0  0  0  0  0
    5.1124   -1.9966    0.2865 H   0  0  0  0  0  0  0  0  0  0  0  0
  1  5  1  0
  5  8  1  0
  1  2  1  0
  1  3  1  0
  1  4  1  0
  5  6  1  0
  5  7  1  0
  8  9  1  0
  8 10  1  0
  8 11  1  0
 12 16  1  0
 16 17  1  0
 12 13  1  0
 12 14  1  0
 12 15  1  0
 17 18  1  0
 17 19  1  0
 17 20  1  0
M  CHG  1   8   1
M  END
>  <PDB_ID>  (113) 
pdb1cm8

>  <RESIDUE_NAME>  (113) 
LYS   MET

>  <FRAG_NAME>  (113) 
ETAM   MSM

>  <FRAG_ATOM_NUM>  (113) 
fragi: 11  fragj: 9

>  <atom.prop.CHAIN_ID>  (113) 
A A A A A A A A A A A Z Z Z Z Z Z Z Z Z

>  <atom.prop.IS_HEAVY_ATOM>  (113) 
1 0 0 0 1 0 0 1 0 0 0 1 0 0 0 1 1 0 0 0

>  <DIFUSE_FUNC_ATOM>  (113) 
n/a

>  <FINAL_SINGLE_POINT_ENERGY>  (113) 
0

>  <NONCOV_INTER_ENERGY_QM>  (113) 
0

>  <FF_Energy>  (113) 
3.03

>  <QM_Energy>  (113) 
-4.32

>  <source>  (113) 
ETAM_MSM

>  <Index>  (113) 
669

$$$$
ETAM-pdb2db0-A-LYS-22:MSM-pdb2db0-A-MET-26
     RDKit          3D

 20 18  0  0  0  0  0  0  0  0999 V2000
    1.2189    1.0194    0.0000 C   0  0  0  0  0  0  0  0  0  0  0  0
    2.0466    0.4834    0.0037 H   0  0  0  0  0  0  0  0  0  0  0  0
    1.1365    1.5718    0.8132 H   0  0  0  0  0  0  0  0  0  0  0  0
    1.2054    1.6617   -0.8805 H   0  0  0  0  0  0  0  0  0  0  0  0
    0.0000    0.0000    0.0000 C   0  0  0  0  0  0  0  0  0  0  0  0
    0.0914   -0.5482   -0.8165 H   0  0  0  0  0  0  0  0  0  0  0  0
    0.0910   -0.5480    0.8168 H   0  0  0  0  0  0  0  0  0  0  0  0
   -1.2189    0.7639    0.0000 N   0  0  0  0  0  4  0  0  0  0  0  0
   -1.0552    1.6958    0.3463 H   0  0  0  0  0  0  0  0  0  0  0  0
   -1.5942    0.8365   -0.9329 H   0  0  0  0  0  0  0  0  0  0  0  0
   -1.9129    0.3273    0.5862 H   0  0  0  0  0  0  0  0  0  0  0  0
    2.5655   -2.5117   -2.4557 C   0  0  0  0  0  0  0  0  0  0  0  0
    2.2937   -3.3667   -2.0188 H   0  0  0  0  0  0  0  0  0  0  0  0
    3.0102   -1.9173   -1.7892 H   0  0  0  0  0  0  0  0  0  0  0  0
    3.2575   -2.7257   -3.2703 H   0  0  0  0  0  0  0  0  0  0  0  0
    1.0769   -1.6628   -3.1629 S   0  0  0  0  0  0  0  0  0  0  0  0
    0.2480   -2.8908   -4.0465 C   0  0  0  0  0  0  0  0  0  0  0  0
   -0.4221   -2.4917   -4.6927 H   0  0  0  0  0  0  0  0  0  0  0  0
    0.8920   -3.4561   -4.5856 H   0  0  0  0  0  0  0  0  0  0  0  0
   -0.2585   -3.5121   -3.4281 H   0  0  0  0  0  0  0  0  0  0  0  0
  1  5  1  0
  5  8  1  0
  1  2  1  0
  1  3  1  0
  1  4  1  0
  5  6  1  0
  5  7  1  0
  8  9  1  0
  8 10  1  0
  8 11  1  0
 12 16  1  0
 16 17  1  0
 12 13  1  0
 12 14  1  0
 12 15  1  0
 17 18  1  0
 17 19  1  0
 17 20  1  0
M  CHG  1   8   1
M  END
>  <PDB_ID>  (114) 
pdb2db0

>  <RESIDUE_NAME>  (114) 
LYS   MET

>  <FRAG_NAME>  (114) 
ETAM   MSM

>  <FRAG_ATOM_NUM>  (114) 
fragi: 11  fragj: 9

>  <atom.prop.CHAIN_ID>  (114) 
A A A A A A A A A A A Z Z Z Z Z Z Z Z Z

>  <atom.prop.IS_HEAVY_ATOM>  (114) 
1 0 0 0 1 0 0 1 0 0 0 1 0 0 0 1 1 0 0 0

>  <DIFUSE_FUNC_ATOM>  (114) 
n/a

>  <FINAL_SINGLE_POINT_ENERGY>  (114) 
0

>  <NONCOV_INTER_ENERGY_QM>  (114) 
0

>  <FF_Energy>  (114) 
-3.59

>  <QM_Energy>  (114) 
-8.6

>  <source>  (114) 
ETAM_MSM

>  <Index>  (114) 
670

$$$$
ETAM-pdb2dbb-B-LYS-16:MSM-pdb2dbb-B-MET-12
     RDKit          3D

 20 18  0  0  0  0  0  0  0  0999 V2000
    1.2614    0.8654    0.0000 C   0  0  0  0  0  0  0  0  0  0  0  0
    2.0474    0.2752    0.1648 H   0  0  0  0  0  0  0  0  0  0  0  0
    1.1812    1.5383    0.7315 H   0  0  0  0  0  0  0  0  0  0  0  0
    1.4064    1.3881   -0.9454 H   0  0  0  0  0  0  0  0  0  0  0  0
    0.0000    0.0000    0.0000 C   0  0  0  0  0  0  0  0  0  0  0  0
    0.0162   -0.5921   -0.8160 H   0  0  0  0  0  0  0  0  0  0  0  0
    0.0165   -0.5922    0.8166 H   0  0  0  0  0  0  0  0  0  0  0  0
   -1.2614    0.7963    0.0000 N   0  0  0  0  0  4  0  0  0  0  0  0
   -1.1338    1.6167    0.5552 H   0  0  0  0  0  0  0  0  0  0  0  0
   -1.4873    1.0570   -0.9373 H   0  0  0  0  0  0  0  0  0  0  0  0
   -2.0005    0.2438    0.3824 H   0  0  0  0  0  0  0  0  0  0  0  0
   -2.5829    2.3421   -3.3545 C   0  0  0  0  0  0  0  0  0  0  0  0
   -3.1188    1.4826   -3.5622 H   0  0  0  0  0  0  0  0  0  0  0  0
   -1.6363    2.0005   -3.1172 H   0  0  0  0  0  0  0  0  0  0  0  0
   -2.5123    2.9254   -4.2726 H   0  0  0  0  0  0  0  0  0  0  0  0
   -3.3173    3.2153   -1.9208 S   0  0  0  0  0  0  0  0  0  0  0  0
   -1.8844    3.5078   -0.9353 C   0  0  0  0  0  0  0  0  0  0  0  0
   -1.1133    3.7920   -1.5148 H   0  0  0  0  0  0  0  0  0  0  0  0
   -2.0649    4.2339   -0.2632 H   0  0  0  0  0  0  0  0  0  0  0  0
   -1.6235    2.6717   -0.4409 H   0  0  0  0  0  0  0  0  0  0  0  0
  1  5  1  0
  5  8  1  0
  1  2  1  0
  1  3  1  0
  1  4  1  0
  5  6  1  0
  5  7  1  0
  8  9  1  0
  8 10  1  0
  8 11  1  0
 12 16  1  0
 16 17  1  0
 12 13  1  0
 12 14  1  0
 12 15  1  0
 17 18  1  0
 17 19  1  0
 17 20  1  0
M  CHG  1   8   1
M  END
>  <PDB_ID>  (115) 
pdb2dbb

>  <RESIDUE_NAME>  (115) 
LYS   MET

>  <FRAG_NAME>  (115) 
ETAM   MSM

>  <FRAG_ATOM_NUM>  (115) 
fragi: 11  fragj: 9

>  <atom.prop.CHAIN_ID>  (115) 
A A A A A A A A A A A Z Z Z Z Z Z Z Z Z

>  <atom.prop.IS_HEAVY_ATOM>  (115) 
1 0 0 0 1 0 0 1 0 0 0 1 0 0 0 1 1 0 0 0

>  <DIFUSE_FUNC_ATOM>  (115) 
n/a

>  <FINAL_SINGLE_POINT_ENERGY>  (115) 
0

>  <NONCOV_INTER_ENERGY_QM>  (115) 
0

>  <FF_Energy>  (115) 
23.84

>  <QM_Energy>  (115) 
6.87

>  <source>  (115) 
ETAM_MSM

>  <Index>  (115) 
671

$$$$
ETAM-pdb1cli-C-LYS-2078:MSM-pdb1cli-C-MET-2075
     RDKit          3D

 20 18  0  0  0  0  0  0  0  0999 V2000
    1.2605    0.8593   -0.0000 C   0  0  0  0  0  0  0  0  0  0  0  0
    2.0520    0.2591   -0.0442 H   0  0  0  0  0  0  0  0  0  0  0  0
    1.2771    1.3956    0.8361 H   0  0  0  0  0  0  0  0  0  0  0  0
    1.2830    1.5355   -0.8545 H   0  0  0  0  0  0  0  0  0  0  0  0
    0.0000    0.0000    0.0000 C   0  0  0  0  0  0  0  0  0  0  0  0
    0.0127   -0.5929   -0.8163 H   0  0  0  0  0  0  0  0  0  0  0  0
    0.0120   -0.5933    0.8163 H   0  0  0  0  0  0  0  0  0  0  0  0
   -1.2605    0.8005    0.0000 N   0  0  0  0  0  4  0  0  0  0  0  0
   -1.8409    0.5001    0.7553 H   0  0  0  0  0  0  0  0  0  0  0  0
   -1.0363    1.7681    0.1114 H   0  0  0  0  0  0  0  0  0  0  0  0
   -1.7373    0.6634   -0.8671 H   0  0  0  0  0  0  0  0  0  0  0  0
   -1.5744    2.8829    4.0154 C   0  0  0  0  0  0  0  0  0  0  0  0
   -2.2515    2.6495    4.7691 H   0  0  0  0  0  0  0  0  0  0  0  0
   -2.1830    3.2000    3.2337 H   0  0  0  0  0  0  0  0  0  0  0  0
   -0.9958    3.7437    4.3505 H   0  0  0  0  0  0  0  0  0  0  0  0
   -0.6250    1.4146    3.5312 S   0  0  0  0  0  0  0  0  0  0  0  0
   -0.3389    0.6598    5.0912 C   0  0  0  0  0  0  0  0  0  0  0  0
    0.5064    0.1120    5.0691 H   0  0  0  0  0  0  0  0  0  0  0  0
   -0.2464    1.3590    5.8102 H   0  0  0  0  0  0  0  0  0  0  0  0
   -1.1045    0.0530    5.3358 H   0  0  0  0  0  0  0  0  0  0  0  0
  1  5  1  0
  5  8  1  0
  1  2  1  0
  1  3  1  0
  1  4  1  0
  5  6  1  0
  5  7  1  0
  8  9  1  0
  8 10  1  0
  8 11  1  0
 12 16  1  0
 16 17  1  0
 12 13  1  0
 12 14  1  0
 12 15  1  0
 17 18  1  0
 17 19  1  0
 17 20  1  0
M  CHG  1   8   1
M  END
>  <PDB_ID>  (116) 
pdb1cli

>  <RESIDUE_NAME>  (116) 
LYS   MET

>  <FRAG_NAME>  (116) 
ETAM   MSM

>  <FRAG_ATOM_NUM>  (116) 
fragi: 11  fragj: 9

>  <atom.prop.CHAIN_ID>  (116) 
A A A A A A A A A A A Z Z Z Z Z Z Z Z Z

>  <atom.prop.IS_HEAVY_ATOM>  (116) 
1 0 0 0 1 0 0 1 0 0 0 1 0 0 0 1 1 0 0 0

>  <DIFUSE_FUNC_ATOM>  (116) 
n/a

>  <FINAL_SINGLE_POINT_ENERGY>  (116) 
0

>  <NONCOV_INTER_ENERGY_QM>  (116) 
0

>  <FF_Energy>  (116) 
-5.51

>  <QM_Energy>  (116) 
-12.41

>  <source>  (116) 
ETAM_MSM

>  <Index>  (116) 
672

$$$$
ETAM-pdb1crb-A-LYS-37:MSM-pdb1crb-A-MET-10
     RDKit          3D

 20 18  0  0  0  0  0  0  0  0999 V2000
    1.2491    0.8737   -0.0000 C   0  0  0  0  0  0  0  0  0  0  0  0
    1.1958    1.5035    0.7709 H   0  0  0  0  0  0  0  0  0  0  0  0
    1.2791    1.3821   -0.8564 H   0  0  0  0  0  0  0  0  0  0  0  0
    2.1616    0.2845    0.0916 H   0  0  0  0  0  0  0  0  0  0  0  0
    0.0000    0.0000    0.0000 C   0  0  0  0  0  0  0  0  0  0  0  0
    0.0079   -0.5787   -0.8163 H   0  0  0  0  0  0  0  0  0  0  0  0
    0.0065   -0.5792    0.8160 H   0  0  0  0  0  0  0  0  0  0  0  0
   -1.2491    0.8275   -0.0000 N   0  0  0  0  0  4  0  0  0  0  0  0
   -2.0156    0.2620   -0.2978 H   0  0  0  0  0  0  0  0  0  0  0  0
   -1.4169    1.1659    0.9235 H   0  0  0  0  0  0  0  0  0  0  0  0
   -1.1319    1.5956   -0.6265 H   0  0  0  0  0  0  0  0  0  0  0  0
    0.7886    4.7259   -0.3376 C   0  0  0  0  0  0  0  0  0  0  0  0
    0.2907    4.2479    0.4282 H   0  0  0  0  0  0  0  0  0  0  0  0
    0.3298    5.6468   -0.4137 H   0  0  0  0  0  0  0  0  0  0  0  0
    1.8185    4.8878   -0.0194 H   0  0  0  0  0  0  0  0  0  0  0  0
    0.6547    3.8120   -1.8625 S   0  0  0  0  0  0  0  0  0  0  0  0
    0.7107    5.1319   -3.0296 C   0  0  0  0  0  0  0  0  0  0  0  0
    0.8296    6.0116   -2.5571 H   0  0  0  0  0  0  0  0  0  0  0  0
    1.4791    5.0032   -3.6659 H   0  0  0  0  0  0  0  0  0  0  0  0
   -0.1437    5.1659   -3.5603 H   0  0  0  0  0  0  0  0  0  0  0  0
  1  5  1  0
  5  8  1  0
  1  2  1  0
  1  3  1  0
  1  4  1  0
  5  6  1  0
  5  7  1  0
  8  9  1  0
  8 10  1  0
  8 11  1  0
 12 16  1  0
 16 17  1  0
 12 13  1  0
 12 14  1  0
 12 15  1  0
 17 18  1  0
 17 19  1  0
 17 20  1  0
M  CHG  1   8   1
M  END
>  <PDB_ID>  (117) 
pdb1crb

>  <RESIDUE_NAME>  (117) 
LYS   MET

>  <FRAG_NAME>  (117) 
ETAM   MSM

>  <FRAG_ATOM_NUM>  (117) 
fragi: 11  fragj: 9

>  <atom.prop.CHAIN_ID>  (117) 
A A A A A A A A A A A Z Z Z Z Z Z Z Z Z

>  <atom.prop.IS_HEAVY_ATOM>  (117) 
1 0 0 0 1 0 0 1 0 0 0 1 0 0 0 1 1 0 0 0

>  <DIFUSE_FUNC_ATOM>  (117) 
n/a

>  <FINAL_SINGLE_POINT_ENERGY>  (117) 
0

>  <NONCOV_INTER_ENERGY_QM>  (117) 
0

>  <FF_Energy>  (117) 
-3.84

>  <QM_Energy>  (117) 
-9.99

>  <source>  (117) 
ETAM_MSM

>  <Index>  (117) 
676

$$$$
ETAM-pdb2dcl-B-LYS-34:MSM-pdb2dcl-B-MET-38
     RDKit          3D

 20 18  0  0  0  0  0  0  0  0999 V2000
    1.2030    0.9337    0.0000 C   0  0  0  0  0  0  0  0  0  0  0  0
    1.0952    1.5862    0.7693 H   0  0  0  0  0  0  0  0  0  0  0  0
    1.1807    1.4754   -0.8571 H   0  0  0  0  0  0  0  0  0  0  0  0
    2.1804    0.4586    0.0846 H   0  0  0  0  0  0  0  0  0  0  0  0
    0.0000    0.0000    0.0000 C   0  0  0  0  0  0  0  0  0  0  0  0
    0.0107   -0.5411   -0.8162 H   0  0  0  0  0  0  0  0  0  0  0  0
    0.0111   -0.5416    0.8165 H   0  0  0  0  0  0  0  0  0  0  0  0
   -1.2030    0.8801    0.0000 N   0  0  0  0  0  4  0  0  0  0  0  0
   -1.9564    0.4095   -0.4580 H   0  0  0  0  0  0  0  0  0  0  0  0
   -1.4601    1.0877    0.9429 H   0  0  0  0  0  0  0  0  0  0  0  0
   -0.9919    1.7276   -0.4847 H   0  0  0  0  0  0  0  0  0  0  0  0
    1.0992    5.4683   -1.1575 C   0  0  0  0  0  0  0  0  0  0  0  0
    0.1047    5.5505   -1.3058 H   0  0  0  0  0  0  0  0  0  0  0  0
    1.3801    4.5382   -1.4279 H   0  0  0  0  0  0  0  0  0  0  0  0
    1.6440    6.2234   -1.7241 H   0  0  0  0  0  0  0  0  0  0  0  0
    1.4125    5.6323    0.7538 S   0  0  0  0  0  0  0  0  0  0  0  0
    1.3423    3.7622    1.1867 C   0  0  0  0  0  0  0  0  0  0  0  0
    1.6610    3.2875    0.3899 H   0  0  0  0  0  0  0  0  0  0  0  0
    1.9331    3.6405    1.9612 H   0  0  0  0  0  0  0  0  0  0  0  0
    0.4029    3.5668    1.3928 H   0  0  0  0  0  0  0  0  0  0  0  0
  1  5  1  0
  5  8  1  0
  1  2  1  0
  1  3  1  0
  1  4  1  0
  5  6  1  0
  5  7  1  0
  8  9  1  0
  8 10  1  0
  8 11  1  0
 12 16  1  0
 16 17  1  0
 12 13  1  0
 12 14  1  0
 12 15  1  0
 17 18  1  0
 17 19  1  0
 17 20  1  0
M  CHG  1   8   1
M  END
>  <PDB_ID>  (118) 
pdb2dcl

>  <RESIDUE_NAME>  (118) 
LYS   MET

>  <FRAG_NAME>  (118) 
ETAM   MSM

>  <FRAG_ATOM_NUM>  (118) 
fragi: 11  fragj: 9

>  <atom.prop.CHAIN_ID>  (118) 
A A A A A A A A A A A Z Z Z Z Z Z Z Z Z

>  <atom.prop.IS_HEAVY_ATOM>  (118) 
1 0 0 0 1 0 0 1 0 0 0 1 0 0 0 1 1 0 0 0

>  <DIFUSE_FUNC_ATOM>  (118) 
n/a

>  <FINAL_SINGLE_POINT_ENERGY>  (118) 
0

>  <NONCOV_INTER_ENERGY_QM>  (118) 
0

>  <FF_Energy>  (118) 
11.2

>  <QM_Energy>  (118) 
5.04

>  <source>  (118) 
ETAM_MSM

>  <Index>  (118) 
684

$$$$
ETAM-pdb2dec-A-LYS-287:MSM-pdb2dec-A-MET-55
     RDKit          3D

 20 18  0  0  0  0  0  0  0  0999 V2000
    1.2497    0.8676    0.0000 C   0  0  0  0  0  0  0  0  0  0  0  0
    1.3028    1.3479    0.8688 H   0  0  0  0  0  0  0  0  0  0  0  0
    1.1866    1.5144   -0.7519 H   0  0  0  0  0  0  0  0  0  0  0  0
    2.1500    0.2661   -0.1254 H   0  0  0  0  0  0  0  0  0  0  0  0
    0.0000    0.0000    0.0000 C   0  0  0  0  0  0  0  0  0  0  0  0
    0.0095   -0.5849   -0.8157 H   0  0  0  0  0  0  0  0  0  0  0  0
    0.0092   -0.5854    0.8164 H   0  0  0  0  0  0  0  0  0  0  0  0
   -1.2497    0.8153    0.0000 N   0  0  0  0  0  4  0  0  0  0  0  0
   -1.6615    0.7871   -0.9097 H   0  0  0  0  0  0  0  0  0  0  0  0
   -1.8883    0.4401    0.6703 H   0  0  0  0  0  0  0  0  0  0  0  0
   -1.0271    1.7598    0.2401 H   0  0  0  0  0  0  0  0  0  0  0  0
    0.0043    2.3599   -4.3485 C   0  0  0  0  0  0  0  0  0  0  0  0
    0.3085    3.3364   -4.2725 H   0  0  0  0  0  0  0  0  0  0  0  0
   -0.7865    2.2686   -3.7011 H   0  0  0  0  0  0  0  0  0  0  0  0
   -0.3590    2.1906   -5.3621 H   0  0  0  0  0  0  0  0  0  0  0  0
    1.3504    1.2343   -3.8719 S   0  0  0  0  0  0  0  0  0  0  0  0
    0.4177   -0.1842   -3.3353 C   0  0  0  0  0  0  0  0  0  0  0  0
    0.9590   -1.0179   -3.4664 H   0  0  0  0  0  0  0  0  0  0  0  0
    0.1877   -0.0934   -2.3630 H   0  0  0  0  0  0  0  0  0  0  0  0
   -0.4298   -0.2565   -3.8675 H   0  0  0  0  0  0  0  0  0  0  0  0
  1  5  1  0
  5  8  1  0
  1  2  1  0
  1  3  1  0
  1  4  1  0
  5  6  1  0
  5  7  1  0
  8  9  1  0
  8 10  1  0
  8 11  1  0
 12 16  1  0
 16 17  1  0
 12 13  1  0
 12 14  1  0
 12 15  1  0
 17 18  1  0
 17 19  1  0
 17 20  1  0
M  CHG  1   8   1
M  END
>  <PDB_ID>  (119) 
pdb2dec

>  <RESIDUE_NAME>  (119) 
LYS   MET

>  <FRAG_NAME>  (119) 
ETAM   MSM

>  <FRAG_ATOM_NUM>  (119) 
fragi: 11  fragj: 9

>  <atom.prop.CHAIN_ID>  (119) 
A A A A A A A A A A A Z Z Z Z Z Z Z Z Z

>  <atom.prop.IS_HEAVY_ATOM>  (119) 
1 0 0 0 1 0 0 1 0 0 0 1 0 0 0 1 1 0 0 0

>  <DIFUSE_FUNC_ATOM>  (119) 
n/a

>  <FINAL_SINGLE_POINT_ENERGY>  (119) 
0

>  <NONCOV_INTER_ENERGY_QM>  (119) 
0

>  <FF_Energy>  (119) 
12.35

>  <QM_Energy>  (119) 
0.73

>  <source>  (119) 
ETAM_MSM

>  <Index>  (119) 
700

$$$$
ETAM-pdb1cyd-B-LYS-161:MSM-pdb1cyd-B-MET-158
     RDKit          3D

 20 18  0  0  0  0  0  0  0  0999 V2000
    1.2616    0.8462    0.0000 C   0  0  0  0  0  0  0  0  0  0  0  0
    1.3002    1.3698    0.8419 H   0  0  0  0  0  0  0  0  0  0  0  0
    1.2473    1.4484   -0.7886 H   0  0  0  0  0  0  0  0  0  0  0  0
    2.1574    0.2279   -0.0578 H   0  0  0  0  0  0  0  0  0  0  0  0
    0.0000    0.0000    0.0000 C   0  0  0  0  0  0  0  0  0  0  0  0
    0.0010   -0.5915   -0.8164 H   0  0  0  0  0  0  0  0  0  0  0  0
    0.0010   -0.5922    0.8159 H   0  0  0  0  0  0  0  0  0  0  0  0
   -1.2616    0.8156    0.0000 N   0  0  0  0  0  4  0  0  0  0  0  0
   -1.0688    1.7112   -0.3946 H   0  0  0  0  0  0  0  0  0  0  0  0
   -1.9526    0.3451   -0.5441 H   0  0  0  0  0  0  0  0  0  0  0  0
   -1.5813    0.9193    0.9392 H   0  0  0  0  0  0  0  0  0  0  0  0
   -0.2104    1.1894    5.3063 C   0  0  0  0  0  0  0  0  0  0  0  0
   -1.1129    0.7030    5.1802 H   0  0  0  0  0  0  0  0  0  0  0  0
   -0.4246    1.9656    5.9529 H   0  0  0  0  0  0  0  0  0  0  0  0
    0.4777    0.5079    5.8065 H   0  0  0  0  0  0  0  0  0  0  0  0
    0.3872    1.8354    3.7172 S   0  0  0  0  0  0  0  0  0  0  0  0
    1.9214    2.4742    4.0966 C   0  0  0  0  0  0  0  0  0  0  0  0
    2.1462    2.3607    5.0813 H   0  0  0  0  0  0  0  0  0  0  0  0
    2.6623    2.0200    3.5692 H   0  0  0  0  0  0  0  0  0  0  0  0
    1.9798    3.4680    3.8922 H   0  0  0  0  0  0  0  0  0  0  0  0
  1  5  1  0
  5  8  1  0
  1  2  1  0
  1  3  1  0
  1  4  1  0
  5  6  1  0
  5  7  1  0
  8  9  1  0
  8 10  1  0
  8 11  1  0
 12 16  1  0
 16 17  1  0
 12 13  1  0
 12 14  1  0
 12 15  1  0
 17 18  1  0
 17 19  1  0
 17 20  1  0
M  CHG  1   8   1
M  END
>  <PDB_ID>  (120) 
pdb1cyd

>  <RESIDUE_NAME>  (120) 
LYS   MET

>  <FRAG_NAME>  (120) 
ETAM   MSM

>  <FRAG_ATOM_NUM>  (120) 
fragi: 11  fragj: 9

>  <atom.prop.CHAIN_ID>  (120) 
A A A A A A A A A A A Z Z Z Z Z Z Z Z Z

>  <atom.prop.IS_HEAVY_ATOM>  (120) 
1 0 0 0 1 0 0 1 0 0 0 1 0 0 0 1 1 0 0 0

>  <DIFUSE_FUNC_ATOM>  (120) 
n/a

>  <FINAL_SINGLE_POINT_ENERGY>  (120) 
0

>  <NONCOV_INTER_ENERGY_QM>  (120) 
0

>  <FF_Energy>  (120) 
-4.76

>  <QM_Energy>  (120) 
-9.89

>  <source>  (120) 
ETAM_MSM

>  <Index>  (120) 
713

$$$$
ETAM-pdb1cyd-C-LYS-161:MSM-pdb1cyd-C-MET-158
     RDKit          3D

 20 18  0  0  0  0  0  0  0  0999 V2000
    1.2451    0.8422   -0.0000 C   0  0  0  0  0  0  0  0  0  0  0  0
    1.2427    1.4289    0.8023 H   0  0  0  0  0  0  0  0  0  0  0  0
    1.2694    1.3888   -0.8300 H   0  0  0  0  0  0  0  0  0  0  0  0
    2.1396    0.2200    0.0311 H   0  0  0  0  0  0  0  0  0  0  0  0
    0.0000    0.0000    0.0000 C   0  0  0  0  0  0  0  0  0  0  0  0
   -0.0032   -0.5908   -0.8163 H   0  0  0  0  0  0  0  0  0  0  0  0
   -0.0035   -0.5912    0.8160 H   0  0  0  0  0  0  0  0  0  0  0  0
   -1.2451    0.8228   -0.0000 N   0  0  0  0  0  4  0  0  0  0  0  0
   -2.0062    0.2679    0.3318 H   0  0  0  0  0  0  0  0  0  0  0  0
   -1.1183    1.6126    0.5984 H   0  0  0  0  0  0  0  0  0  0  0  0
   -1.4345    1.1329   -0.9302 H   0  0  0  0  0  0  0  0  0  0  0  0
   -0.1154    1.9152    5.2856 C   0  0  0  0  0  0  0  0  0  0  0  0
   -1.0972    1.6119    5.3557 H   0  0  0  0  0  0  0  0  0  0  0  0
   -0.0805    2.8163    5.7821 H   0  0  0  0  0  0  0  0  0  0  0  0
    0.5118    1.1976    5.8147 H   0  0  0  0  0  0  0  0  0  0  0  0
    0.3418    2.1512    3.5308 S   0  0  0  0  0  0  0  0  0  0  0  0
    1.9371    2.7985    3.5838 C   0  0  0  0  0  0  0  0  0  0  0  0
    2.2357    3.1222    2.6712 H   0  0  0  0  0  0  0  0  0  0  0  0
    1.9968    3.5849    4.2190 H   0  0  0  0  0  0  0  0  0  0  0  0
    2.6077    2.1052    3.8943 H   0  0  0  0  0  0  0  0  0  0  0  0
  1  5  1  0
  5  8  1  0
  1  2  1  0
  1  3  1  0
  1  4  1  0
  5  6  1  0
  5  7  1  0
  8  9  1  0
  8 10  1  0
  8 11  1  0
 12 16  1  0
 16 17  1  0
 12 13  1  0
 12 14  1  0
 12 15  1  0
 17 18  1  0
 17 19  1  0
 17 20  1  0
M  CHG  1   8   1
M  END
>  <PDB_ID>  (121) 
pdb1cyd

>  <RESIDUE_NAME>  (121) 
LYS   MET

>  <FRAG_NAME>  (121) 
ETAM   MSM

>  <FRAG_ATOM_NUM>  (121) 
fragi: 11  fragj: 9

>  <atom.prop.CHAIN_ID>  (121) 
A A A A A A A A A A A Z Z Z Z Z Z Z Z Z

>  <atom.prop.IS_HEAVY_ATOM>  (121) 
1 0 0 0 1 0 0 1 0 0 0 1 0 0 0 1 1 0 0 0

>  <DIFUSE_FUNC_ATOM>  (121) 
n/a

>  <FINAL_SINGLE_POINT_ENERGY>  (121) 
0

>  <NONCOV_INTER_ENERGY_QM>  (121) 
0

>  <FF_Energy>  (121) 
-4.91

>  <QM_Energy>  (121) 
-10.53

>  <source>  (121) 
ETAM_MSM

>  <Index>  (121) 
714

$$$$
ETAM-pdb2dh4-A-LYS-228:MSM-pdb2dh4-A-MET-224
     RDKit          3D

 20 18  0  0  0  0  0  0  0  0999 V2000
    1.2570    0.8807    0.0000 C   0  0  0  0  0  0  0  0  0  0  0  0
    1.2489    1.4334    0.8291 H   0  0  0  0  0  0  0  0  0  0  0  0
    1.2228    1.4685   -0.8036 H   0  0  0  0  0  0  0  0  0  0  0  0
    2.1732    0.2907   -0.0263 H   0  0  0  0  0  0  0  0  0  0  0  0
    0.0000    0.0000    0.0000 C   0  0  0  0  0  0  0  0  0  0  0  0
    0.0101   -0.5769   -0.8157 H   0  0  0  0  0  0  0  0  0  0  0  0
    0.0104   -0.5766    0.8163 H   0  0  0  0  0  0  0  0  0  0  0  0
   -1.2570    0.8269   -0.0000 N   0  0  0  0  0  4  0  0  0  0  0  0
   -1.0568    1.7200    0.3962 H   0  0  0  0  0  0  0  0  0  0  0  0
   -1.5735    0.9340   -0.9388 H   0  0  0  0  0  0  0  0  0  0  0  0
   -1.9512    0.3599    0.5426 H   0  0  0  0  0  0  0  0  0  0  0  0
   -2.8741    3.4928   -2.7711 C   0  0  0  0  0  0  0  0  0  0  0  0
   -3.0869    4.4740   -2.7736 H   0  0  0  0  0  0  0  0  0  0  0  0
   -3.2334    3.0812   -3.6141 H   0  0  0  0  0  0  0  0  0  0  0  0
   -1.7957    3.3449   -2.7123 H   0  0  0  0  0  0  0  0  0  0  0  0
   -3.6405    2.6936   -1.3133 S   0  0  0  0  0  0  0  0  0  0  0  0
   -3.1695    3.9643    0.0077 C   0  0  0  0  0  0  0  0  0  0  0  0
   -2.9508    4.8001   -0.4663 H   0  0  0  0  0  0  0  0  0  0  0  0
   -3.9532    4.0673    0.5964 H   0  0  0  0  0  0  0  0  0  0  0  0
   -2.3916    3.5996    0.4897 H   0  0  0  0  0  0  0  0  0  0  0  0
  1  5  1  0
  5  8  1  0
  1  2  1  0
  1  3  1  0
  1  4  1  0
  5  6  1  0
  5  7  1  0
  8  9  1  0
  8 10  1  0
  8 11  1  0
 12 16  1  0
 16 17  1  0
 12 13  1  0
 12 14  1  0
 12 15  1  0
 17 18  1  0
 17 19  1  0
 17 20  1  0
M  CHG  1   8   1
M  END
>  <PDB_ID>  (122) 
pdb2dh4

>  <RESIDUE_NAME>  (122) 
LYS   MET

>  <FRAG_NAME>  (122) 
ETAM   MSM

>  <FRAG_ATOM_NUM>  (122) 
fragi: 11  fragj: 9

>  <atom.prop.CHAIN_ID>  (122) 
A A A A A A A A A A A Z Z Z Z Z Z Z Z Z

>  <atom.prop.IS_HEAVY_ATOM>  (122) 
1 0 0 0 1 0 0 1 0 0 0 1 0 0 0 1 1 0 0 0

>  <DIFUSE_FUNC_ATOM>  (122) 
n/a

>  <FINAL_SINGLE_POINT_ENERGY>  (122) 
0

>  <NONCOV_INTER_ENERGY_QM>  (122) 
0

>  <FF_Energy>  (122) 
-3.41

>  <QM_Energy>  (122) 
-10.96

>  <source>  (122) 
ETAM_MSM

>  <Index>  (122) 
715

$$$$
ETAM-pdb2dht-B-LYS-4:MSM-pdb2dht-B-MET-1
     RDKit          3D

 20 18  0  0  0  0  0  0  0  0999 V2000
    1.2637    0.8624   -0.0000 C   0  0  0  0  0  0  0  0  0  0  0  0
    2.0404    0.2804   -0.1758 H   0  0  0  0  0  0  0  0  0  0  0  0
    1.3349    1.3126    0.8741 H   0  0  0  0  0  0  0  0  0  0  0  0
    1.1958    1.6144   -0.7861 H   0  0  0  0  0  0  0  0  0  0  0  0
    0.0000    0.0000    0.0000 C   0  0  0  0  0  0  0  0  0  0  0  0
    0.0081   -0.5873   -0.8166 H   0  0  0  0  0  0  0  0  0  0  0  0
    0.0082   -0.5873    0.8160 H   0  0  0  0  0  0  0  0  0  0  0  0
   -1.2637    0.8136    0.0000 N   0  0  0  0  0  4  0  0  0  0  0  0
   -1.9366    0.3681   -0.5862 H   0  0  0  0  0  0  0  0  0  0  0  0
   -1.6107    0.8728    0.9328 H   0  0  0  0  0  0  0  0  0  0  0  0
   -1.0619    1.7267   -0.3470 H   0  0  0  0  0  0  0  0  0  0  0  0
   -2.9998    5.1705    0.0554 C   0  0  0  0  0  0  0  0  0  0  0  0
   -2.6067    5.9920    0.5580 H   0  0  0  0  0  0  0  0  0  0  0  0
   -3.8363    4.9205    0.6212 H   0  0  0  0  0  0  0  0  0  0  0  0
   -3.3435    5.5076   -0.9226 H   0  0  0  0  0  0  0  0  0  0  0  0
   -1.7969    3.7903    0.0698 S   0  0  0  0  0  0  0  0  0  0  0  0
   -0.2692    4.6843    0.5348 C   0  0  0  0  0  0  0  0  0  0  0  0
    0.4113    4.5379   -0.1753 H   0  0  0  0  0  0  0  0  0  0  0  0
   -0.4819    5.6522    0.6165 H   0  0  0  0  0  0  0  0  0  0  0  0
    0.0548    4.3261    1.4039 H   0  0  0  0  0  0  0  0  0  0  0  0
  1  5  1  0
  5  8  1  0
  1  2  1  0
  1  3  1  0
  1  4  1  0
  5  6  1  0
  5  7  1  0
  8  9  1  0
  8 10  1  0
  8 11  1  0
 12 16  1  0
 16 17  1  0
 12 13  1  0
 12 14  1  0
 12 15  1  0
 17 18  1  0
 17 19  1  0
 17 20  1  0
M  CHG  1   8   1
M  END
>  <PDB_ID>  (123) 
pdb2dht

>  <RESIDUE_NAME>  (123) 
LYS   MET

>  <FRAG_NAME>  (123) 
ETAM   MSM

>  <FRAG_ATOM_NUM>  (123) 
fragi: 11  fragj: 9

>  <atom.prop.CHAIN_ID>  (123) 
A A A A A A A A A A A Z Z Z Z Z Z Z Z Z

>  <atom.prop.IS_HEAVY_ATOM>  (123) 
1 0 0 0 1 0 0 1 0 0 0 1 0 0 0 1 1 0 0 0

>  <DIFUSE_FUNC_ATOM>  (123) 
n/a

>  <FINAL_SINGLE_POINT_ENERGY>  (123) 
0

>  <NONCOV_INTER_ENERGY_QM>  (123) 
0

>  <FF_Energy>  (123) 
-4.42

>  <QM_Energy>  (123) 
-12.31

>  <source>  (123) 
ETAM_MSM

>  <Index>  (123) 
718

$$$$
ETAM-pdb2d4v-C-LYS-199:MSM-pdb2d4v-C-MET-234
     RDKit          3D

 20 18  0  0  0  0  0  0  0  0999 V2000
    1.2566    0.9068   -0.0000 C   0  0  0  0  0  0  0  0  0  0  0  0
    1.0494    1.7218   -0.5304 H   0  0  0  0  0  0  0  0  0  0  0  0
    2.0028    0.4005   -0.4187 H   0  0  0  0  0  0  0  0  0  0  0  0
    1.5559    1.2085    1.0038 H   0  0  0  0  0  0  0  0  0  0  0  0
    0.0000    0.0000    0.0000 C   0  0  0  0  0  0  0  0  0  0  0  0
    0.0395   -0.5840   -0.8159 H   0  0  0  0  0  0  0  0  0  0  0  0
    0.0398   -0.5838    0.8161 H   0  0  0  0  0  0  0  0  0  0  0  0
   -1.2566    0.7781   -0.0000 N   0  0  0  0  0  4  0  0  0  0  0  0
   -2.0304    0.1680   -0.1809 H   0  0  0  0  0  0  0  0  0  0  0  0
   -1.3818    1.2158    0.8915 H   0  0  0  0  0  0  0  0  0  0  0  0
   -1.2172    1.4818   -0.7109 H   0  0  0  0  0  0  0  0  0  0  0  0
    0.9117   -0.9658   -4.5254 C   0  0  0  0  0  0  0  0  0  0  0  0
    1.9145   -0.7392   -4.4428 H   0  0  0  0  0  0  0  0  0  0  0  0
    0.7080   -0.8883   -5.5340 H   0  0  0  0  0  0  0  0  0  0  0  0
    0.7905   -2.0127   -4.2470 H   0  0  0  0  0  0  0  0  0  0  0  0
   -0.0938    0.1654   -3.5679 S   0  0  0  0  0  0  0  0  0  0  0  0
   -1.5559   -0.0269   -4.3787 C   0  0  0  0  0  0  0  0  0  0  0  0
   -1.6258   -0.9301   -4.8483 H   0  0  0  0  0  0  0  0  0  0  0  0
   -2.3597    0.0336   -3.7530 H   0  0  0  0  0  0  0  0  0  0  0  0
   -1.6985    0.6822   -5.0984 H   0  0  0  0  0  0  0  0  0  0  0  0
  1  5  1  0
  5  8  1  0
  1  2  1  0
  1  3  1  0
  1  4  1  0
  5  6  1  0
  5  7  1  0
  8  9  1  0
  8 10  1  0
  8 11  1  0
 12 16  1  0
 16 17  1  0
 12 13  1  0
 12 14  1  0
 12 15  1  0
 17 18  1  0
 17 19  1  0
 17 20  1  0
M  CHG  1   8   1
M  END
>  <PDB_ID>  (124) 
pdb2d4v

>  <RESIDUE_NAME>  (124) 
LYS   MET

>  <FRAG_NAME>  (124) 
ETAM   MSM

>  <FRAG_ATOM_NUM>  (124) 
fragi: 11  fragj: 9

>  <atom.prop.CHAIN_ID>  (124) 
A A A A A A A A A A A Z Z Z Z Z Z Z Z Z

>  <atom.prop.IS_HEAVY_ATOM>  (124) 
1 0 0 0 1 0 0 1 0 0 0 1 0 0 0 1 1 0 0 0

>  <DIFUSE_FUNC_ATOM>  (124) 
n/a

>  <FINAL_SINGLE_POINT_ENERGY>  (124) 
0

>  <NONCOV_INTER_ENERGY_QM>  (124) 
0

>  <FF_Energy>  (124) 
-4.9

>  <QM_Energy>  (124) 
-10.18

>  <source>  (124) 
ETAM_MSM

>  <Index>  (124) 
721

$$$$
ETAM-pdb2d4v-D-LYS-199:MSM-pdb2d4v-D-MET-234
     RDKit          3D

 20 18  0  0  0  0  0  0  0  0999 V2000
    1.2312    0.8801   -0.0000 C   0  0  0  0  0  0  0  0  0  0  0  0
    1.0316    1.7099   -0.5280 H   0  0  0  0  0  0  0  0  0  0  0  0
    1.9802    0.3827   -0.4474 H   0  0  0  0  0  0  0  0  0  0  0  0
    1.5556    1.1735    0.9984 H   0  0  0  0  0  0  0  0  0  0  0  0
    0.0000    0.0000    0.0000 C   0  0  0  0  0  0  0  0  0  0  0  0
    0.0083   -0.5749   -0.8165 H   0  0  0  0  0  0  0  0  0  0  0  0
    0.0083   -0.5747    0.8163 H   0  0  0  0  0  0  0  0  0  0  0  0
   -1.2312    0.8331    0.0000 N   0  0  0  0  0  4  0  0  0  0  0  0
   -1.8441    0.5219    0.7260 H   0  0  0  0  0  0  0  0  0  0  0  0
   -0.9851    1.7894    0.1576 H   0  0  0  0  0  0  0  0  0  0  0  0
   -1.6909    0.7479   -0.8843 H   0  0  0  0  0  0  0  0  0  0  0  0
    0.8462   -0.6958   -4.5282 C   0  0  0  0  0  0  0  0  0  0  0  0
    1.8257   -0.5005   -4.2624 H   0  0  0  0  0  0  0  0  0  0  0  0
    0.8162   -0.5202   -5.5458 H   0  0  0  0  0  0  0  0  0  0  0  0
    0.6483   -1.7536   -4.3550 H   0  0  0  0  0  0  0  0  0  0  0  0
   -0.2819    0.4490   -3.6597 S   0  0  0  0  0  0  0  0  0  0  0  0
   -1.6833    0.2170   -4.5437 C   0  0  0  0  0  0  0  0  0  0  0  0
   -1.6712   -0.6517   -5.0821 H   0  0  0  0  0  0  0  0  0  0  0  0
   -2.5185    0.1730   -3.9551 H   0  0  0  0  0  0  0  0  0  0  0  0
   -1.8526    0.9661   -5.2189 H   0  0  0  0  0  0  0  0  0  0  0  0
  1  5  1  0
  5  8  1  0
  1  2  1  0
  1  3  1  0
  1  4  1  0
  5  6  1  0
  5  7  1  0
  8  9  1  0
  8 10  1  0
  8 11  1  0
 12 16  1  0
 16 17  1  0
 12 13  1  0
 12 14  1  0
 12 15  1  0
 17 18  1  0
 17 19  1  0
 17 20  1  0
M  CHG  1   8   1
M  END
>  <PDB_ID>  (125) 
pdb2d4v

>  <RESIDUE_NAME>  (125) 
LYS   MET

>  <FRAG_NAME>  (125) 
ETAM   MSM

>  <FRAG_ATOM_NUM>  (125) 
fragi: 11  fragj: 9

>  <atom.prop.CHAIN_ID>  (125) 
A A A A A A A A A A A Z Z Z Z Z Z Z Z Z

>  <atom.prop.IS_HEAVY_ATOM>  (125) 
1 0 0 0 1 0 0 1 0 0 0 1 0 0 0 1 1 0 0 0

>  <DIFUSE_FUNC_ATOM>  (125) 
n/a

>  <FINAL_SINGLE_POINT_ENERGY>  (125) 
0

>  <NONCOV_INTER_ENERGY_QM>  (125) 
0

>  <FF_Energy>  (125) 
-5.31

>  <QM_Energy>  (125) 
-11.68

>  <source>  (125) 
ETAM_MSM

>  <Index>  (125) 
722

$$$$
ETAM-pdb1d01-F-LYS-389:MSM-pdb1d01-F-MET-414
     RDKit          3D

 20 18  0  0  0  0  0  0  0  0999 V2000
    1.2508    0.8648   -0.0000 C   0  0  0  0  0  0  0  0  0  0  0  0
    1.2974    1.3581    0.8562 H   0  0  0  0  0  0  0  0  0  0  0  0
    1.2097    1.4845   -0.7692 H   0  0  0  0  0  0  0  0  0  0  0  0
    2.1413    0.2434   -0.0956 H   0  0  0  0  0  0  0  0  0  0  0  0
    0.0000    0.0000    0.0000 C   0  0  0  0  0  0  0  0  0  0  0  0
    0.0077   -0.5844   -0.8161 H   0  0  0  0  0  0  0  0  0  0  0  0
    0.0071   -0.5851    0.8167 H   0  0  0  0  0  0  0  0  0  0  0  0
   -1.2508    0.8182   -0.0000 N   0  0  0  0  0  4  0  0  0  0  0  0
   -2.0100    0.2572    0.3249 H   0  0  0  0  0  0  0  0  0  0  0  0
   -1.1298    1.6038    0.6039 H   0  0  0  0  0  0  0  0  0  0  0  0
   -1.4377    1.1328   -0.9289 H   0  0  0  0  0  0  0  0  0  0  0  0
    1.6704   -0.3040   -4.8037 C   0  0  0  0  0  0  0  0  0  0  0  0
    1.1717   -0.0661   -5.6646 H   0  0  0  0  0  0  0  0  0  0  0  0
    2.5513   -0.7321   -5.0986 H   0  0  0  0  0  0  0  0  0  0  0  0
    1.8941    0.6173   -4.2658 H   0  0  0  0  0  0  0  0  0  0  0  0
    0.6920   -1.4880   -3.8102 S   0  0  0  0  0  0  0  0  0  0  0  0
    1.7390   -1.6919   -2.5271 C   0  0  0  0  0  0  0  0  0  0  0  0
    1.3302   -1.4095   -1.6328 H   0  0  0  0  0  0  0  0  0  0  0  0
    2.0346   -2.6640   -2.4067 H   0  0  0  0  0  0  0  0  0  0  0  0
    2.5999   -1.1470   -2.6263 H   0  0  0  0  0  0  0  0  0  0  0  0
  1  5  1  0
  5  8  1  0
  1  2  1  0
  1  3  1  0
  1  4  1  0
  5  6  1  0
  5  7  1  0
  8  9  1  0
  8 10  1  0
  8 11  1  0
 12 16  1  0
 16 17  1  0
 12 13  1  0
 12 14  1  0
 12 15  1  0
 17 18  1  0
 17 19  1  0
 17 20  1  0
M  CHG  1   8   1
M  END
>  <PDB_ID>  (126) 
pdb1d01

>  <RESIDUE_NAME>  (126) 
LYS   MET

>  <FRAG_NAME>  (126) 
ETAM   MSM

>  <FRAG_ATOM_NUM>  (126) 
fragi: 11  fragj: 9

>  <atom.prop.CHAIN_ID>  (126) 
A A A A A A A A A A A Z Z Z Z Z Z Z Z Z

>  <atom.prop.IS_HEAVY_ATOM>  (126) 
1 0 0 0 1 0 0 1 0 0 0 1 0 0 0 1 1 0 0 0

>  <DIFUSE_FUNC_ATOM>  (126) 
n/a

>  <FINAL_SINGLE_POINT_ENERGY>  (126) 
0

>  <NONCOV_INTER_ENERGY_QM>  (126) 
0

>  <FF_Energy>  (126) 
3.12

>  <QM_Energy>  (126) 
-2.76

>  <source>  (126) 
ETAM_MSM

>  <Index>  (126) 
735

$$$$
ETAM-pdb1czf-A-LYS-127:MSM-pdb1czf-A-MET-150
     RDKit          3D

 20 18  0  0  0  0  0  0  0  0999 V2000
    1.2481    0.8639   -0.0000 C   0  0  0  0  0  0  0  0  0  0  0  0
    1.4267    1.1610    0.9287 H   0  0  0  0  0  0  0  0  0  0  0  0
    1.0945    1.6409   -0.5956 H   0  0  0  0  0  0  0  0  0  0  0  0
    2.1029    0.2944   -0.3649 H   0  0  0  0  0  0  0  0  0  0  0  0
    0.0000    0.0000    0.0000 C   0  0  0  0  0  0  0  0  0  0  0  0
    0.0094   -0.5874   -0.8160 H   0  0  0  0  0  0  0  0  0  0  0  0
    0.0094   -0.5875    0.8161 H   0  0  0  0  0  0  0  0  0  0  0  0
   -1.2481    0.8123    0.0000 N   0  0  0  0  0  4  0  0  0  0  0  0
   -2.0028    0.2598   -0.3527 H   0  0  0  0  0  0  0  0  0  0  0  0
   -1.4540    1.1035    0.9341 H   0  0  0  0  0  0  0  0  0  0  0  0
   -1.1207    1.6153   -0.5817 H   0  0  0  0  0  0  0  0  0  0  0  0
    0.2332    0.9439   -4.9616 C   0  0  0  0  0  0  0  0  0  0  0  0
   -0.5388    1.6042   -4.9222 H   0  0  0  0  0  0  0  0  0  0  0  0
    0.1885    0.4929   -5.8716 H   0  0  0  0  0  0  0  0  0  0  0  0
    1.1676    1.5015   -4.8978 H   0  0  0  0  0  0  0  0  0  0  0  0
    0.1373   -0.2457   -3.6420 S   0  0  0  0  0  0  0  0  0  0  0  0
   -1.1503   -1.3332   -4.2368 C   0  0  0  0  0  0  0  0  0  0  0  0
   -1.5022   -0.9935   -5.1114 H   0  0  0  0  0  0  0  0  0  0  0  0
   -0.7802   -2.2556   -4.3656 H   0  0  0  0  0  0  0  0  0  0  0  0
   -1.8981   -1.3672   -3.5715 H   0  0  0  0  0  0  0  0  0  0  0  0
  1  5  1  0
  5  8  1  0
  1  2  1  0
  1  3  1  0
  1  4  1  0
  5  6  1  0
  5  7  1  0
  8  9  1  0
  8 10  1  0
  8 11  1  0
 12 16  1  0
 16 17  1  0
 12 13  1  0
 12 14  1  0
 12 15  1  0
 17 18  1  0
 17 19  1  0
 17 20  1  0
M  CHG  1   8   1
M  END
>  <PDB_ID>  (127) 
pdb1czf

>  <RESIDUE_NAME>  (127) 
LYS   MET

>  <FRAG_NAME>  (127) 
ETAM   MSM

>  <FRAG_ATOM_NUM>  (127) 
fragi: 11  fragj: 9

>  <atom.prop.CHAIN_ID>  (127) 
A A A A A A A A A A A Z Z Z Z Z Z Z Z Z

>  <atom.prop.IS_HEAVY_ATOM>  (127) 
1 0 0 0 1 0 0 1 0 0 0 1 0 0 0 1 1 0 0 0

>  <DIFUSE_FUNC_ATOM>  (127) 
n/a

>  <FINAL_SINGLE_POINT_ENERGY>  (127) 
0

>  <NONCOV_INTER_ENERGY_QM>  (127) 
0

>  <FF_Energy>  (127) 
-4.15

>  <QM_Energy>  (127) 
-9.84

>  <source>  (127) 
ETAM_MSM

>  <Index>  (127) 
736

$$$$
ETAM-pdb1cyg-A-LYS-236:MSM-pdb1cyg-A-MET-504
     RDKit          3D

 20 18  0  0  0  0  0  0  0  0999 V2000
    1.2349    0.9259    0.0000 C   0  0  0  0  0  0  0  0  0  0  0  0
    1.3820    1.2447    0.9076 H   0  0  0  0  0  0  0  0  0  0  0  0
    1.0907    1.6329   -0.6520 H   0  0  0  0  0  0  0  0  0  0  0  0
    2.0879    0.3216   -0.3088 H   0  0  0  0  0  0  0  0  0  0  0  0
    0.0000    0.0000    0.0000 C   0  0  0  0  0  0  0  0  0  0  0  0
    0.0444   -0.5743   -0.8163 H   0  0  0  0  0  0  0  0  0  0  0  0
    0.0437   -0.5739    0.8164 H   0  0  0  0  0  0  0  0  0  0  0  0
   -1.2349    0.7877   -0.0000 N   0  0  0  0  0  4  0  0  0  0  0  0
   -1.9661    0.2792    0.4622 H   0  0  0  0  0  0  0  0  0  0  0  0
   -1.0886    1.6564    0.4808 H   0  0  0  0  0  0  0  0  0  0  0  0
   -1.5180    0.9816   -0.9430 H   0  0  0  0  0  0  0  0  0  0  0  0
   -0.0898   -0.2187    5.3777 C   0  0  0  0  0  0  0  0  0  0  0  0
    0.3248   -0.9698    5.8984 H   0  0  0  0  0  0  0  0  0  0  0  0
   -0.8571   -0.5809    4.8413 H   0  0  0  0  0  0  0  0  0  0  0  0
   -0.4337    0.5659    6.0517 H   0  0  0  0  0  0  0  0  0  0  0  0
    1.1649    0.5066    4.2420 S   0  0  0  0  0  0  0  0  0  0  0  0
    0.1282    1.3536    3.0601 C   0  0  0  0  0  0  0  0  0  0  0  0
   -0.8350    1.1597    3.2551 H   0  0  0  0  0  0  0  0  0  0  0  0
    0.2841    2.3416    3.1206 H   0  0  0  0  0  0  0  0  0  0  0  0
    0.3467    1.0414    2.1333 H   0  0  0  0  0  0  0  0  0  0  0  0
  1  5  1  0
  5  8  1  0
  1  2  1  0
  1  3  1  0
  1  4  1  0
  5  6  1  0
  5  7  1  0
  8  9  1  0
  8 10  1  0
  8 11  1  0
 12 16  1  0
 16 17  1  0
 12 13  1  0
 12 14  1  0
 12 15  1  0
 17 18  1  0
 17 19  1  0
 17 20  1  0
M  CHG  1   8   1
M  END
>  <PDB_ID>  (128) 
pdb1cyg

>  <RESIDUE_NAME>  (128) 
LYS   MET

>  <FRAG_NAME>  (128) 
ETAM   MSM

>  <FRAG_ATOM_NUM>  (128) 
fragi: 11  fragj: 9

>  <atom.prop.CHAIN_ID>  (128) 
A A A A A A A A A A A Z Z Z Z Z Z Z Z Z

>  <atom.prop.IS_HEAVY_ATOM>  (128) 
1 0 0 0 1 0 0 1 0 0 0 1 0 0 0 1 1 0 0 0

>  <DIFUSE_FUNC_ATOM>  (128) 
n/a

>  <FINAL_SINGLE_POINT_ENERGY>  (128) 
0

>  <NONCOV_INTER_ENERGY_QM>  (128) 
0

>  <FF_Energy>  (128) 
16.96

>  <QM_Energy>  (128) 
2.8

>  <source>  (128) 
ETAM_MSM

>  <Index>  (128) 
737

$$$$
ETAM-pdb1d00-H-LYS-389:MSM-pdb1d00-H-MET-414
     RDKit          3D

 20 18  0  0  0  0  0  0  0  0999 V2000
    1.2458    0.8772    0.0000 C   0  0  0  0  0  0  0  0  0  0  0  0
    1.2076    1.4825    0.7846 H   0  0  0  0  0  0  0  0  0  0  0  0
    1.2681    1.3968   -0.8446 H   0  0  0  0  0  0  0  0  0  0  0  0
    2.1508    0.2731    0.0657 H   0  0  0  0  0  0  0  0  0  0  0  0
    0.0000    0.0000    0.0000 C   0  0  0  0  0  0  0  0  0  0  0  0
    0.0142   -0.5822   -0.8165 H   0  0  0  0  0  0  0  0  0  0  0  0
    0.0137   -0.5825    0.8169 H   0  0  0  0  0  0  0  0  0  0  0  0
   -1.2458    0.8137    0.0000 N   0  0  0  0  0  4  0  0  0  0  0  0
   -1.0085    1.7841   -0.0276 H   0  0  0  0  0  0  0  0  0  0  0  0
   -1.7947    0.5800   -0.8025 H   0  0  0  0  0  0  0  0  0  0  0  0
   -1.7677    0.6210    0.8297 H   0  0  0  0  0  0  0  0  0  0  0  0
    1.7904   -0.9840   -4.6015 C   0  0  0  0  0  0  0  0  0  0  0  0
    1.3541   -0.8005   -5.5109 H   0  0  0  0  0  0  0  0  0  0  0  0
    2.6095   -1.5672   -4.8033 H   0  0  0  0  0  0  0  0  0  0  0  0
    2.1364   -0.0357   -4.1903 H   0  0  0  0  0  0  0  0  0  0  0  0
    0.6571   -1.8257   -3.5031 S   0  0  0  0  0  0  0  0  0  0  0  0
    1.7168   -2.0840   -2.1819 C   0  0  0  0  0  0  0  0  0  0  0  0
    1.5509   -1.4194   -1.4330 H   0  0  0  0  0  0  0  0  0  0  0  0
    1.6052   -3.0126   -1.7887 H   0  0  0  0  0  0  0  0  0  0  0  0
    2.6889   -1.9892   -2.4569 H   0  0  0  0  0  0  0  0  0  0  0  0
  1  5  1  0
  5  8  1  0
  1  2  1  0
  1  3  1  0
  1  4  1  0
  5  6  1  0
  5  7  1  0
  8  9  1  0
  8 10  1  0
  8 11  1  0
 12 16  1  0
 16 17  1  0
 12 13  1  0
 12 14  1  0
 12 15  1  0
 17 18  1  0
 17 19  1  0
 17 20  1  0
M  CHG  1   8   1
M  END
>  <PDB_ID>  (129) 
pdb1d00

>  <RESIDUE_NAME>  (129) 
LYS   MET

>  <FRAG_NAME>  (129) 
ETAM   MSM

>  <FRAG_ATOM_NUM>  (129) 
fragi: 11  fragj: 9

>  <atom.prop.CHAIN_ID>  (129) 
A A A A A A A A A A A Z Z Z Z Z Z Z Z Z

>  <atom.prop.IS_HEAVY_ATOM>  (129) 
1 0 0 0 1 0 0 1 0 0 0 1 0 0 0 1 1 0 0 0

>  <DIFUSE_FUNC_ATOM>  (129) 
n/a

>  <FINAL_SINGLE_POINT_ENERGY>  (129) 
0

>  <NONCOV_INTER_ENERGY_QM>  (129) 
0

>  <FF_Energy>  (129) 
1.0

>  <QM_Energy>  (129) 
-4.01

>  <source>  (129) 
ETAM_MSM

>  <Index>  (129) 
749

$$$$
ETAM-pdb1d0j-A-LYS-389:MSM-pdb1d0j-A-MET-414
     RDKit          3D

 20 18  0  0  0  0  0  0  0  0999 V2000
    1.2305    0.8735   -0.0000 C   0  0  0  0  0  0  0  0  0  0  0  0
    1.2390    1.4141    0.8281 H   0  0  0  0  0  0  0  0  0  0  0  0
    1.2138    1.4495   -0.8043 H   0  0  0  0  0  0  0  0  0  0  0  0
    2.1230    0.2485   -0.0265 H   0  0  0  0  0  0  0  0  0  0  0  0
    0.0000    0.0000    0.0000 C   0  0  0  0  0  0  0  0  0  0  0  0
    0.0083   -0.5792   -0.8159 H   0  0  0  0  0  0  0  0  0  0  0  0
    0.0078   -0.5792    0.8163 H   0  0  0  0  0  0  0  0  0  0  0  0
   -1.2305    0.8256    0.0000 N   0  0  0  0  0  4  0  0  0  0  0  0
   -1.0042    1.7639    0.2637 H   0  0  0  0  0  0  0  0  0  0  0  0
   -1.6335    0.8259   -0.9156 H   0  0  0  0  0  0  0  0  0  0  0  0
   -1.8883    0.4469    0.6521 H   0  0  0  0  0  0  0  0  0  0  0  0
    1.2564   -1.0635   -4.5256 C   0  0  0  0  0  0  0  0  0  0  0  0
    0.7271   -0.8145   -5.3560 H   0  0  0  0  0  0  0  0  0  0  0  0
    1.9199   -1.7816   -4.8010 H   0  0  0  0  0  0  0  0  0  0  0  0
    1.7998   -0.1879   -4.1706 H   0  0  0  0  0  0  0  0  0  0  0  0
    0.1544   -1.6818   -3.2356 S   0  0  0  0  0  0  0  0  0  0  0  0
    1.3653   -2.2150   -2.0759 C   0  0  0  0  0  0  0  0  0  0  0  0
    0.9235   -2.5922   -1.2545 H   0  0  0  0  0  0  0  0  0  0  0  0
    1.9495   -2.9283   -2.4800 H   0  0  0  0  0  0  0  0  0  0  0  0
    1.9499   -1.4441   -1.7982 H   0  0  0  0  0  0  0  0  0  0  0  0
  1  5  1  0
  5  8  1  0
  1  2  1  0
  1  3  1  0
  1  4  1  0
  5  6  1  0
  5  7  1  0
  8  9  1  0
  8 10  1  0
  8 11  1  0
 12 16  1  0
 16 17  1  0
 12 13  1  0
 12 14  1  0
 12 15  1  0
 17 18  1  0
 17 19  1  0
 17 20  1  0
M  CHG  1   8   1
M  END
>  <PDB_ID>  (130) 
pdb1d0j

>  <RESIDUE_NAME>  (130) 
LYS   MET

>  <FRAG_NAME>  (130) 
ETAM   MSM

>  <FRAG_ATOM_NUM>  (130) 
fragi: 11  fragj: 9

>  <atom.prop.CHAIN_ID>  (130) 
A A A A A A A A A A A Z Z Z Z Z Z Z Z Z

>  <atom.prop.IS_HEAVY_ATOM>  (130) 
1 0 0 0 1 0 0 1 0 0 0 1 0 0 0 1 1 0 0 0

>  <DIFUSE_FUNC_ATOM>  (130) 
n/a

>  <FINAL_SINGLE_POINT_ENERGY>  (130) 
0

>  <NONCOV_INTER_ENERGY_QM>  (130) 
0

>  <FF_Energy>  (130) 
-0.64

>  <QM_Energy>  (130) 
-7.15

>  <source>  (130) 
ETAM_MSM

>  <Index>  (130) 
756

$$$$
ETAM-pdb1d0j-A-LYS-493:MSM-pdb1d0j-A-MET-433
     RDKit          3D

 20 18  0  0  0  0  0  0  0  0999 V2000
    1.2381    0.8662    0.0000 C   0  0  0  0  0  0  0  0  0  0  0  0
    1.2803    1.3650    0.8547 H   0  0  0  0  0  0  0  0  0  0  0  0
    1.1964    1.4850   -0.7716 H   0  0  0  0  0  0  0  0  0  0  0  0
    2.1300    0.2463   -0.0912 H   0  0  0  0  0  0  0  0  0  0  0  0
    0.0000    0.0000    0.0000 C   0  0  0  0  0  0  0  0  0  0  0  0
    0.0137   -0.5891   -0.8162 H   0  0  0  0  0  0  0  0  0  0  0  0
    0.0135   -0.5886    0.8162 H   0  0  0  0  0  0  0  0  0  0  0  0
   -1.2381    0.8056    0.0000 N   0  0  0  0  0  4  0  0  0  0  0  0
   -1.6039    0.8609   -0.9306 H   0  0  0  0  0  0  0  0  0  0  0  0
   -1.9188    0.3779    0.5978 H   0  0  0  0  0  0  0  0  0  0  0  0
   -1.0396    1.7292    0.3333 H   0  0  0  0  0  0  0  0  0  0  0  0
    3.2143    2.1481   -4.6613 C   0  0  0  0  0  0  0  0  0  0  0  0
    3.4405    2.1634   -5.6639 H   0  0  0  0  0  0  0  0  0  0  0  0
    3.3549    1.1718   -4.3695 H   0  0  0  0  0  0  0  0  0  0  0  0
    3.9332    2.7752   -4.1339 H   0  0  0  0  0  0  0  0  0  0  0  0
    1.4899    2.6458   -4.3947 S   0  0  0  0  0  0  0  0  0  0  0  0
    1.4871    3.0171   -2.6842 C   0  0  0  0  0  0  0  0  0  0  0  0
    2.3577    3.4458   -2.4111 H   0  0  0  0  0  0  0  0  0  0  0  0
    0.7382    3.6524   -2.4592 H   0  0  0  0  0  0  0  0  0  0  0  0
    1.3641    2.1791   -2.1376 H   0  0  0  0  0  0  0  0  0  0  0  0
  1  5  1  0
  5  8  1  0
  1  2  1  0
  1  3  1  0
  1  4  1  0
  5  6  1  0
  5  7  1  0
  8  9  1  0
  8 10  1  0
  8 11  1  0
 12 16  1  0
 16 17  1  0
 12 13  1  0
 12 14  1  0
 12 15  1  0
 17 18  1  0
 17 19  1  0
 17 20  1  0
M  CHG  1   8   1
M  END
>  <PDB_ID>  (131) 
pdb1d0j

>  <RESIDUE_NAME>  (131) 
LYS   MET

>  <FRAG_NAME>  (131) 
ETAM   MSM

>  <FRAG_ATOM_NUM>  (131) 
fragi: 11  fragj: 9

>  <atom.prop.CHAIN_ID>  (131) 
A A A A A A A A A A A Z Z Z Z Z Z Z Z Z

>  <atom.prop.IS_HEAVY_ATOM>  (131) 
1 0 0 0 1 0 0 1 0 0 0 1 0 0 0 1 1 0 0 0

>  <DIFUSE_FUNC_ATOM>  (131) 
n/a

>  <FINAL_SINGLE_POINT_ENERGY>  (131) 
0

>  <NONCOV_INTER_ENERGY_QM>  (131) 
0

>  <FF_Energy>  (131) 
19.02

>  <QM_Energy>  (131) 
2.99

>  <source>  (131) 
ETAM_MSM

>  <Index>  (131) 
757

$$$$
ETAM-pdb1d0j-C-LYS-389:MSM-pdb1d0j-C-MET-414
     RDKit          3D

 20 18  0  0  0  0  0  0  0  0999 V2000
    1.2450    0.8470    0.0000 C   0  0  0  0  0  0  0  0  0  0  0  0
    1.2217    1.4560    0.7828 H   0  0  0  0  0  0  0  0  0  0  0  0
    1.2845    1.3624   -0.8466 H   0  0  0  0  0  0  0  0  0  0  0  0
    2.1318    0.2172    0.0711 H   0  0  0  0  0  0  0  0  0  0  0  0
    0.0000    0.0000    0.0000 C   0  0  0  0  0  0  0  0  0  0  0  0
    0.0051   -0.5953   -0.8161 H   0  0  0  0  0  0  0  0  0  0  0  0
    0.0044   -0.5945    0.8160 H   0  0  0  0  0  0  0  0  0  0  0  0
   -1.2450    0.8070   -0.0000 N   0  0  0  0  0  4  0  0  0  0  0  0
   -1.0183    1.7695   -0.1511 H   0  0  0  0  0  0  0  0  0  0  0  0
   -1.8500    0.4883   -0.7309 H   0  0  0  0  0  0  0  0  0  0  0  0
   -1.7071    0.7079    0.8821 H   0  0  0  0  0  0  0  0  0  0  0  0
    1.4030   -1.8518   -4.0761 C   0  0  0  0  0  0  0  0  0  0  0  0
    0.8983   -1.8121   -4.9691 H   0  0  0  0  0  0  0  0  0  0  0  0
    2.1712   -2.5156   -4.2271 H   0  0  0  0  0  0  0  0  0  0  0  0
    1.8251   -0.8685   -3.8689 H   0  0  0  0  0  0  0  0  0  0  0  0
    0.3173   -2.4286   -2.7606 S   0  0  0  0  0  0  0  0  0  0  0  0
    1.4883   -2.7330   -1.5278 C   0  0  0  0  0  0  0  0  0  0  0  0
    2.4307   -2.6098   -1.8770 H   0  0  0  0  0  0  0  0  0  0  0  0
    1.3687   -2.1047   -0.7431 H   0  0  0  0  0  0  0  0  0  0  0  0
    1.4143   -3.6791   -1.1759 H   0  0  0  0  0  0  0  0  0  0  0  0
  1  5  1  0
  5  8  1  0
  1  2  1  0
  1  3  1  0
  1  4  1  0
  5  6  1  0
  5  7  1  0
  8  9  1  0
  8 10  1  0
  8 11  1  0
 12 16  1  0
 16 17  1  0
 12 13  1  0
 12 14  1  0
 12 15  1  0
 17 18  1  0
 17 19  1  0
 17 20  1  0
M  CHG  1   8   1
M  END
>  <PDB_ID>  (132) 
pdb1d0j

>  <RESIDUE_NAME>  (132) 
LYS   MET

>  <FRAG_NAME>  (132) 
ETAM   MSM

>  <FRAG_ATOM_NUM>  (132) 
fragi: 11  fragj: 9

>  <atom.prop.CHAIN_ID>  (132) 
A A A A A A A A A A A Z Z Z Z Z Z Z Z Z

>  <atom.prop.IS_HEAVY_ATOM>  (132) 
1 0 0 0 1 0 0 1 0 0 0 1 0 0 0 1 1 0 0 0

>  <DIFUSE_FUNC_ATOM>  (132) 
n/a

>  <FINAL_SINGLE_POINT_ENERGY>  (132) 
0

>  <NONCOV_INTER_ENERGY_QM>  (132) 
0

>  <FF_Energy>  (132) 
-1.01

>  <QM_Energy>  (132) 
-6.48

>  <source>  (132) 
ETAM_MSM

>  <Index>  (132) 
759

$$$$
ETAM-pdb1d0j-D-LYS-389:MSM-pdb1d0j-D-MET-414
     RDKit          3D

 20 18  0  0  0  0  0  0  0  0999 V2000
    1.2630    0.8340    0.0000 C   0  0  0  0  0  0  0  0  0  0  0  0
    1.3054    1.3487    0.8452 H   0  0  0  0  0  0  0  0  0  0  0  0
    1.2471    1.4377   -0.7854 H   0  0  0  0  0  0  0  0  0  0  0  0
    2.1382    0.1876   -0.0657 H   0  0  0  0  0  0  0  0  0  0  0  0
    0.0000    0.0000    0.0000 C   0  0  0  0  0  0  0  0  0  0  0  0
    0.0023   -0.6016   -0.8160 H   0  0  0  0  0  0  0  0  0  0  0  0
    0.0026   -0.6021    0.8165 H   0  0  0  0  0  0  0  0  0  0  0  0
   -1.2630    0.7992    0.0000 N   0  0  0  0  0  4  0  0  0  0  0  0
   -1.2580    1.4225    0.7807 H   0  0  0  0  0  0  0  0  0  0  0  0
   -1.3211    1.3227   -0.8484 H   0  0  0  0  0  0  0  0  0  0  0  0
   -2.0432    0.1803    0.0687 H   0  0  0  0  0  0  0  0  0  0  0  0
    1.2871   -0.5337   -4.9116 C   0  0  0  0  0  0  0  0  0  0  0  0
    0.7908   -0.1603   -5.7142 H   0  0  0  0  0  0  0  0  0  0  0  0
    2.0104   -1.1494   -5.2686 H   0  0  0  0  0  0  0  0  0  0  0  0
    1.7568    0.2893   -4.3731 H   0  0  0  0  0  0  0  0  0  0  0  0
    0.1794   -1.4079   -3.8212 S   0  0  0  0  0  0  0  0  0  0  0  0
    1.3908   -1.9377   -2.6282 C   0  0  0  0  0  0  0  0  0  0  0  0
    2.2791   -1.5191   -2.8349 H   0  0  0  0  0  0  0  0  0  0  0  0
    1.1056   -1.6619   -1.7072 H   0  0  0  0  0  0  0  0  0  0  0  0
    1.4838   -2.9359   -2.6576 H   0  0  0  0  0  0  0  0  0  0  0  0
  1  5  1  0
  5  8  1  0
  1  2  1  0
  1  3  1  0
  1  4  1  0
  5  6  1  0
  5  7  1  0
  8  9  1  0
  8 10  1  0
  8 11  1  0
 12 16  1  0
 16 17  1  0
 12 13  1  0
 12 14  1  0
 12 15  1  0
 17 18  1  0
 17 19  1  0
 17 20  1  0
M  CHG  1   8   1
M  END
>  <PDB_ID>  (133) 
pdb1d0j

>  <RESIDUE_NAME>  (133) 
LYS   MET

>  <FRAG_NAME>  (133) 
ETAM   MSM

>  <FRAG_ATOM_NUM>  (133) 
fragi: 11  fragj: 9

>  <atom.prop.CHAIN_ID>  (133) 
A A A A A A A A A A A Z Z Z Z Z Z Z Z Z

>  <atom.prop.IS_HEAVY_ATOM>  (133) 
1 0 0 0 1 0 0 1 0 0 0 1 0 0 0 1 1 0 0 0

>  <DIFUSE_FUNC_ATOM>  (133) 
n/a

>  <FINAL_SINGLE_POINT_ENERGY>  (133) 
0

>  <NONCOV_INTER_ENERGY_QM>  (133) 
0

>  <FF_Energy>  (133) 
1.91

>  <QM_Energy>  (133) 
-4.08

>  <source>  (133) 
ETAM_MSM

>  <Index>  (133) 
761

$$$$
ETAM-pdb1d0j-D-LYS-493:MSM-pdb1d0j-D-MET-433
     RDKit          3D

 20 18  0  0  0  0  0  0  0  0999 V2000
    1.2325    0.8660   -0.0000 C   0  0  0  0  0  0  0  0  0  0  0  0
    1.3248    1.2985    0.8945 H   0  0  0  0  0  0  0  0  0  0  0  0
    1.1377    1.5647   -0.7066 H   0  0  0  0  0  0  0  0  0  0  0  0
    2.1355    0.2895   -0.2006 H   0  0  0  0  0  0  0  0  0  0  0  0
    0.0000    0.0000    0.0000 C   0  0  0  0  0  0  0  0  0  0  0  0
    0.0097   -0.5855   -0.8165 H   0  0  0  0  0  0  0  0  0  0  0  0
    0.0091   -0.5857    0.8158 H   0  0  0  0  0  0  0  0  0  0  0  0
   -1.2325    0.8158    0.0000 N   0  0  0  0  0  4  0  0  0  0  0  0
   -1.0873    1.6441   -0.5425 H   0  0  0  0  0  0  0  0  0  0  0  0
   -1.9853    0.2884   -0.3966 H   0  0  0  0  0  0  0  0  0  0  0  0
   -1.4663    1.0719    0.9395 H   0  0  0  0  0  0  0  0  0  0  0  0
    2.6563    3.1342   -4.7545 C   0  0  0  0  0  0  0  0  0  0  0  0
    2.7640    3.5478   -5.6894 H   0  0  0  0  0  0  0  0  0  0  0  0
    2.8284    2.1294   -4.8851 H   0  0  0  0  0  0  0  0  0  0  0  0
    3.4305    3.5393   -4.1028 H   0  0  0  0  0  0  0  0  0  0  0  0
    0.9536    3.4057   -4.1398 S   0  0  0  0  0  0  0  0  0  0  0  0
    1.0319    2.6614   -2.6293 C   0  0  0  0  0  0  0  0  0  0  0  0
    1.6621    1.8597   -2.6235 H   0  0  0  0  0  0  0  0  0  0  0  0
    1.3636    3.2942   -1.9016 H   0  0  0  0  0  0  0  0  0  0  0  0
    0.1237    2.3156   -2.3194 H   0  0  0  0  0  0  0  0  0  0  0  0
  1  5  1  0
  5  8  1  0
  1  2  1  0
  1  3  1  0
  1  4  1  0
  5  6  1  0
  5  7  1  0
  8  9  1  0
  8 10  1  0
  8 11  1  0
 12 16  1  0
 16 17  1  0
 12 13  1  0
 12 14  1  0
 12 15  1  0
 17 18  1  0
 17 19  1  0
 17 20  1  0
M  CHG  1   8   1
M  END
>  <PDB_ID>  (134) 
pdb1d0j

>  <RESIDUE_NAME>  (134) 
LYS   MET

>  <FRAG_NAME>  (134) 
ETAM   MSM

>  <FRAG_ATOM_NUM>  (134) 
fragi: 11  fragj: 9

>  <atom.prop.CHAIN_ID>  (134) 
A A A A A A A A A A A Z Z Z Z Z Z Z Z Z

>  <atom.prop.IS_HEAVY_ATOM>  (134) 
1 0 0 0 1 0 0 1 0 0 0 1 0 0 0 1 1 0 0 0

>  <DIFUSE_FUNC_ATOM>  (134) 
n/a

>  <FINAL_SINGLE_POINT_ENERGY>  (134) 
0

>  <NONCOV_INTER_ENERGY_QM>  (134) 
0

>  <FF_Energy>  (134) 
8.28

>  <QM_Energy>  (134) 
1.82

>  <source>  (134) 
ETAM_MSM

>  <Index>  (134) 
762

$$$$
ETAM-pdb2dr3-C-LYS-144:MSM-pdb2dr3-C-MET-147
     RDKit          3D

 20 18  0  0  0  0  0  0  0  0999 V2000
    1.2464    0.8711    0.0000 C   0  0  0  0  0  0  0  0  0  0  0  0
    1.1549    1.5591    0.7152 H   0  0  0  0  0  0  0  0  0  0  0  0
    1.3271    1.3125   -0.8897 H   0  0  0  0  0  0  0  0  0  0  0  0
    2.1520    0.2940    0.1868 H   0  0  0  0  0  0  0  0  0  0  0  0
    0.0000    0.0000    0.0000 C   0  0  0  0  0  0  0  0  0  0  0  0
    0.0088   -0.5810   -0.8162 H   0  0  0  0  0  0  0  0  0  0  0  0
    0.0076   -0.5818    0.8164 H   0  0  0  0  0  0  0  0  0  0  0  0
   -1.2464    0.8223   -0.0000 N   0  0  0  0  0  4  0  0  0  0  0  0
   -2.0358    0.2227    0.1247 H   0  0  0  0  0  0  0  0  0  0  0  0
   -1.2039    1.4839    0.7476 H   0  0  0  0  0  0  0  0  0  0  0  0
   -1.3234    1.3030   -0.8715 H   0  0  0  0  0  0  0  0  0  0  0  0
    1.0091    2.1981    3.1647 C   0  0  0  0  0  0  0  0  0  0  0  0
    2.0008    2.4572    3.1290 H   0  0  0  0  0  0  0  0  0  0  0  0
    0.6925    2.1883    2.1898 H   0  0  0  0  0  0  0  0  0  0  0  0
    0.9363    1.1838    3.5571 H   0  0  0  0  0  0  0  0  0  0  0  0
    0.0698    3.3781    4.1353 S   0  0  0  0  0  0  0  0  0  0  0  0
   -1.5201    2.5411    4.2397 C   0  0  0  0  0  0  0  0  0  0  0  0
   -2.2081    3.1784    4.5867 H   0  0  0  0  0  0  0  0  0  0  0  0
   -1.7871    2.2221    3.3310 H   0  0  0  0  0  0  0  0  0  0  0  0
   -1.4437    1.7605    4.8596 H   0  0  0  0  0  0  0  0  0  0  0  0
  1  5  1  0
  5  8  1  0
  1  2  1  0
  1  3  1  0
  1  4  1  0
  5  6  1  0
  5  7  1  0
  8  9  1  0
  8 10  1  0
  8 11  1  0
 12 16  1  0
 16 17  1  0
 12 13  1  0
 12 14  1  0
 12 15  1  0
 17 18  1  0
 17 19  1  0
 17 20  1  0
M  CHG  1   8   1
M  END
>  <PDB_ID>  (135) 
pdb2dr3

>  <RESIDUE_NAME>  (135) 
LYS   MET

>  <FRAG_NAME>  (135) 
ETAM   MSM

>  <FRAG_ATOM_NUM>  (135) 
fragi: 11  fragj: 9

>  <atom.prop.CHAIN_ID>  (135) 
A A A A A A A A A A A Z Z Z Z Z Z Z Z Z

>  <atom.prop.IS_HEAVY_ATOM>  (135) 
1 0 0 0 1 0 0 1 0 0 0 1 0 0 0 1 1 0 0 0

>  <DIFUSE_FUNC_ATOM>  (135) 
n/a

>  <FINAL_SINGLE_POINT_ENERGY>  (135) 
0

>  <NONCOV_INTER_ENERGY_QM>  (135) 
0

>  <FF_Energy>  (135) 
8.69

>  <QM_Energy>  (135) 
2.57

>  <source>  (135) 
ETAM_MSM

>  <Index>  (135) 
781

$$$$
ETAM-pdb2dy3-A-LYS-28:MSM-pdb2dy3-A-MET-212
     RDKit          3D

 20 18  0  0  0  0  0  0  0  0999 V2000
    1.2544    0.8652    0.0000 C   0  0  0  0  0  0  0  0  0  0  0  0
    1.2915    1.3695    0.8598 H   0  0  0  0  0  0  0  0  0  0  0  0
    1.1993    1.5023   -0.7651 H   0  0  0  0  0  0  0  0  0  0  0  0
    2.1655    0.2752   -0.0992 H   0  0  0  0  0  0  0  0  0  0  0  0
    0.0000    0.0000    0.0000 C   0  0  0  0  0  0  0  0  0  0  0  0
    0.0062   -0.5839   -0.8163 H   0  0  0  0  0  0  0  0  0  0  0  0
    0.0065   -0.5843    0.8165 H   0  0  0  0  0  0  0  0  0  0  0  0
   -1.2544    0.8208    0.0000 N   0  0  0  0  0  4  0  0  0  0  0  0
   -1.9189    0.4012   -0.6158 H   0  0  0  0  0  0  0  0  0  0  0  0
   -1.6236    0.8520    0.9263 H   0  0  0  0  0  0  0  0  0  0  0  0
   -1.0398    1.7442   -0.3113 H   0  0  0  0  0  0  0  0  0  0  0  0
    1.4012    0.2299   -4.8427 C   0  0  0  0  0  0  0  0  0  0  0  0
    1.4716    0.0679   -5.8507 H   0  0  0  0  0  0  0  0  0  0  0  0
    1.9296   -0.5264   -4.4005 H   0  0  0  0  0  0  0  0  0  0  0  0
    1.8845    1.1781   -4.6070 H   0  0  0  0  0  0  0  0  0  0  0  0
   -0.3540    0.1669   -4.3148 S   0  0  0  0  0  0  0  0  0  0  0  0
   -0.2658   -0.9673   -3.0377 C   0  0  0  0  0  0  0  0  0  0  0  0
    0.6346   -0.9368   -2.5686 H   0  0  0  0  0  0  0  0  0  0  0  0
   -0.9756   -0.7957   -2.3323 H   0  0  0  0  0  0  0  0  0  0  0  0
   -0.3975   -1.9178   -3.3694 H   0  0  0  0  0  0  0  0  0  0  0  0
  1  5  1  0
  5  8  1  0
  1  2  1  0
  1  3  1  0
  1  4  1  0
  5  6  1  0
  5  7  1  0
  8  9  1  0
  8 10  1  0
  8 11  1  0
 12 16  1  0
 16 17  1  0
 12 13  1  0
 12 14  1  0
 12 15  1  0
 17 18  1  0
 17 19  1  0
 17 20  1  0
M  CHG  1   8   1
M  END
>  <PDB_ID>  (136) 
pdb2dy3

>  <RESIDUE_NAME>  (136) 
LYS   MET

>  <FRAG_NAME>  (136) 
ETAM   MSM

>  <FRAG_ATOM_NUM>  (136) 
fragi: 11  fragj: 9

>  <atom.prop.CHAIN_ID>  (136) 
A A A A A A A A A A A Z Z Z Z Z Z Z Z Z

>  <atom.prop.IS_HEAVY_ATOM>  (136) 
1 0 0 0 1 0 0 1 0 0 0 1 0 0 0 1 1 0 0 0

>  <DIFUSE_FUNC_ATOM>  (136) 
n/a

>  <FINAL_SINGLE_POINT_ENERGY>  (136) 
0

>  <NONCOV_INTER_ENERGY_QM>  (136) 
0

>  <FF_Energy>  (136) 
8.6

>  <QM_Energy>  (136) 
0.25

>  <source>  (136) 
ETAM_MSM

>  <Index>  (136) 
827

$$$$
ETAM-pdb1dbq-A-LYS-114:MSM-pdb1dbq-A-MET-110
     RDKit          3D

 20 18  0  0  0  0  0  0  0  0999 V2000
    1.2775    0.8709   -0.0000 C   0  0  0  0  0  0  0  0  0  0  0  0
    2.0370    0.2967   -0.2951 H   0  0  0  0  0  0  0  0  0  0  0  0
    1.4298    1.1862    0.9332 H   0  0  0  0  0  0  0  0  0  0  0  0
    1.1938    1.7306   -0.6648 H   0  0  0  0  0  0  0  0  0  0  0  0
    0.0000    0.0000    0.0000 C   0  0  0  0  0  0  0  0  0  0  0  0
    0.0187   -0.5905   -0.8166 H   0  0  0  0  0  0  0  0  0  0  0  0
    0.0184   -0.5906    0.8161 H   0  0  0  0  0  0  0  0  0  0  0  0
   -1.2775    0.7950    0.0000 N   0  0  0  0  0  4  0  0  0  0  0  0
   -1.8914    0.4209    0.6907 H   0  0  0  0  0  0  0  0  0  0  0  0
   -1.0663    1.7465    0.2114 H   0  0  0  0  0  0  0  0  0  0  0  0
   -1.6989    0.7307   -0.9017 H   0  0  0  0  0  0  0  0  0  0  0  0
    0.8218   -0.5357   -4.7307 C   0  0  0  0  0  0  0  0  0  0  0  0
    0.8877   -1.5128   -5.0348 H   0  0  0  0  0  0  0  0  0  0  0  0
    1.5382   -0.0325   -5.2646 H   0  0  0  0  0  0  0  0  0  0  0  0
   -0.1601   -0.1468   -5.0006 H   0  0  0  0  0  0  0  0  0  0  0  0
    1.1687   -0.4111   -2.9428 S   0  0  0  0  0  0  0  0  0  0  0  0
    2.7423    0.5594   -2.9652 C   0  0  0  0  0  0  0  0  0  0  0  0
    3.4941   -0.0715   -2.8207 H   0  0  0  0  0  0  0  0  0  0  0  0
    2.8175    1.0023   -3.8490 H   0  0  0  0  0  0  0  0  0  0  0  0
    2.6988    1.2311   -2.2365 H   0  0  0  0  0  0  0  0  0  0  0  0
  1  5  1  0
  5  8  1  0
  1  2  1  0
  1  3  1  0
  1  4  1  0
  5  6  1  0
  5  7  1  0
  8  9  1  0
  8 10  1  0
  8 11  1  0
 12 16  1  0
 16 17  1  0
 12 13  1  0
 12 14  1  0
 12 15  1  0
 17 18  1  0
 17 19  1  0
 17 20  1  0
M  CHG  1   8   1
M  END
>  <PDB_ID>  (137) 
pdb1dbq

>  <RESIDUE_NAME>  (137) 
LYS   MET

>  <FRAG_NAME>  (137) 
ETAM   MSM

>  <FRAG_ATOM_NUM>  (137) 
fragi: 11  fragj: 9

>  <atom.prop.CHAIN_ID>  (137) 
A A A A A A A A A A A Z Z Z Z Z Z Z Z Z

>  <atom.prop.IS_HEAVY_ATOM>  (137) 
1 0 0 0 1 0 0 1 0 0 0 1 0 0 0 1 1 0 0 0

>  <DIFUSE_FUNC_ATOM>  (137) 
n/a

>  <FINAL_SINGLE_POINT_ENERGY>  (137) 
0

>  <NONCOV_INTER_ENERGY_QM>  (137) 
0

>  <FF_Energy>  (137) 
3.26

>  <QM_Energy>  (137) 
-7.41

>  <source>  (137) 
ETAM_MSM

>  <Index>  (137) 
830

$$$$
ETAM-pdb2dy3-D-LYS-28:MSM-pdb2dy3-D-MET-212
     RDKit          3D

 20 18  0  0  0  0  0  0  0  0999 V2000
    1.2547    0.8692    0.0000 C   0  0  0  0  0  0  0  0  0  0  0  0
    1.2315    1.4587    0.8047 H   0  0  0  0  0  0  0  0  0  0  0  0
    1.2546    1.4252   -0.8281 H   0  0  0  0  0  0  0  0  0  0  0  0
    2.1709    0.2793    0.0252 H   0  0  0  0  0  0  0  0  0  0  0  0
    0.0000    0.0000    0.0000 C   0  0  0  0  0  0  0  0  0  0  0  0
    0.0068   -0.5817   -0.8161 H   0  0  0  0  0  0  0  0  0  0  0  0
    0.0069   -0.5823    0.8164 H   0  0  0  0  0  0  0  0  0  0  0  0
   -1.2547    0.8230    0.0000 N   0  0  0  0  0  4  0  0  0  0  0  0
   -1.1388    1.5928    0.6245 H   0  0  0  0  0  0  0  0  0  0  0  0
   -1.4249    1.1580   -0.9245 H   0  0  0  0  0  0  0  0  0  0  0  0
   -2.0165    0.2541    0.3003 H   0  0  0  0  0  0  0  0  0  0  0  0
    1.5218   -0.5028   -4.7258 C   0  0  0  0  0  0  0  0  0  0  0  0
    1.5652   -0.8281   -5.6958 H   0  0  0  0  0  0  0  0  0  0  0  0
    2.0529   -1.1871   -4.1793 H   0  0  0  0  0  0  0  0  0  0  0  0
    2.0266    0.4610   -4.6606 H   0  0  0  0  0  0  0  0  0  0  0  0
   -0.2163   -0.4467   -4.1532 S   0  0  0  0  0  0  0  0  0  0  0  0
   -0.1765   -1.5525   -2.8080 C   0  0  0  0  0  0  0  0  0  0  0  0
    0.7457   -1.5897   -2.3988 H   0  0  0  0  0  0  0  0  0  0  0  0
   -0.8252   -1.2679   -2.0881 H   0  0  0  0  0  0  0  0  0  0  0  0
   -0.4261   -2.4857   -3.1014 H   0  0  0  0  0  0  0  0  0  0  0  0
  1  5  1  0
  5  8  1  0
  1  2  1  0
  1  3  1  0
  1  4  1  0
  5  6  1  0
  5  7  1  0
  8  9  1  0
  8 10  1  0
  8 11  1  0
 12 16  1  0
 16 17  1  0
 12 13  1  0
 12 14  1  0
 12 15  1  0
 17 18  1  0
 17 19  1  0
 17 20  1  0
M  CHG  1   8   1
M  END
>  <PDB_ID>  (138) 
pdb2dy3

>  <RESIDUE_NAME>  (138) 
LYS   MET

>  <FRAG_NAME>  (138) 
ETAM   MSM

>  <FRAG_ATOM_NUM>  (138) 
fragi: 11  fragj: 9

>  <atom.prop.CHAIN_ID>  (138) 
A A A A A A A A A A A Z Z Z Z Z Z Z Z Z

>  <atom.prop.IS_HEAVY_ATOM>  (138) 
1 0 0 0 1 0 0 1 0 0 0 1 0 0 0 1 1 0 0 0

>  <DIFUSE_FUNC_ATOM>  (138) 
n/a

>  <FINAL_SINGLE_POINT_ENERGY>  (138) 
0

>  <NONCOV_INTER_ENERGY_QM>  (138) 
0

>  <FF_Energy>  (138) 
13.84

>  <QM_Energy>  (138) 
-0.26

>  <source>  (138) 
ETAM_MSM

>  <Index>  (138) 
832

$$$$
ETAM-pdb2dyt-A-LYS-142:MSM-pdb2dyt-A-MET-139
     RDKit          3D

 20 18  0  0  0  0  0  0  0  0999 V2000
    1.2320    0.8710    0.0000 C   0  0  0  0  0  0  0  0  0  0  0  0
    1.2150    1.4509    0.8164 H   0  0  0  0  0  0  0  0  0  0  0  0
    1.2149    1.4508   -0.8170 H   0  0  0  0  0  0  0  0  0  0  0  0
    2.1570    0.2943    0.0005 H   0  0  0  0  0  0  0  0  0  0  0  0
    0.0000    0.0000    0.0000 C   0  0  0  0  0  0  0  0  0  0  0  0
    0.0058   -0.5800   -0.8163 H   0  0  0  0  0  0  0  0  0  0  0  0
    0.0055   -0.5790    0.8168 H   0  0  0  0  0  0  0  0  0  0  0  0
   -1.2320    0.8285    0.0000 N   0  0  0  0  0  4  0  0  0  0  0  0
   -1.1173    1.5962   -0.6308 H   0  0  0  0  0  0  0  0  0  0  0  0
   -2.0089    0.2707   -0.2928 H   0  0  0  0  0  0  0  0  0  0  0  0
   -1.4001    1.1758    0.9220 H   0  0  0  0  0  0  0  0  0  0  0  0
    0.3007    2.0992    4.6559 C   0  0  0  0  0  0  0  0  0  0  0  0
   -0.0670    1.2523    5.0381 H   0  0  0  0  0  0  0  0  0  0  0  0
   -0.1126    2.8824    5.1199 H   0  0  0  0  0  0  0  0  0  0  0  0
    1.3841    2.1230    4.7736 H   0  0  0  0  0  0  0  0  0  0  0  0
   -0.0515    2.1803    2.8626 S   0  0  0  0  0  0  0  0  0  0  0  0
    0.7134    3.7556    2.4663 C   0  0  0  0  0  0  0  0  0  0  0  0
    0.1898    4.4956    2.8889 H   0  0  0  0  0  0  0  0  0  0  0  0
    1.6509    3.7679    2.8157 H   0  0  0  0  0  0  0  0  0  0  0  0
    0.7260    3.8800    1.4733 H   0  0  0  0  0  0  0  0  0  0  0  0
  1  5  1  0
  5  8  1  0
  1  2  1  0
  1  3  1  0
  1  4  1  0
  5  6  1  0
  5  7  1  0
  8  9  1  0
  8 10  1  0
  8 11  1  0
 12 16  1  0
 16 17  1  0
 12 13  1  0
 12 14  1  0
 12 15  1  0
 17 18  1  0
 17 19  1  0
 17 20  1  0
M  CHG  1   8   1
M  END
>  <PDB_ID>  (139) 
pdb2dyt

>  <RESIDUE_NAME>  (139) 
LYS   MET

>  <FRAG_NAME>  (139) 
ETAM   MSM

>  <FRAG_ATOM_NUM>  (139) 
fragi: 11  fragj: 9

>  <atom.prop.CHAIN_ID>  (139) 
A A A A A A A A A A A Z Z Z Z Z Z Z Z Z

>  <atom.prop.IS_HEAVY_ATOM>  (139) 
1 0 0 0 1 0 0 1 0 0 0 1 0 0 0 1 1 0 0 0

>  <DIFUSE_FUNC_ATOM>  (139) 
n/a

>  <FINAL_SINGLE_POINT_ENERGY>  (139) 
0

>  <NONCOV_INTER_ENERGY_QM>  (139) 
0

>  <FF_Energy>  (139) 
-3.29

>  <QM_Energy>  (139) 
-12.95

>  <source>  (139) 
ETAM_MSM

>  <Index>  (139) 
833

$$$$
ETAM-pdb2dym-C-LYS-149:MSM-pdb2dym-C-MET-163
     RDKit          3D

 20 18  0  0  0  0  0  0  0  0999 V2000
    1.2356    0.8804    0.0000 C   0  0  0  0  0  0  0  0  0  0  0  0
    1.2129    1.4587    0.8102 H   0  0  0  0  0  0  0  0  0  0  0  0
    1.2253    1.4419   -0.8218 H   0  0  0  0  0  0  0  0  0  0  0  0
    2.1497    0.2869    0.0133 H   0  0  0  0  0  0  0  0  0  0  0  0
    0.0000    0.0000    0.0000 C   0  0  0  0  0  0  0  0  0  0  0  0
    0.0106   -0.5766   -0.8162 H   0  0  0  0  0  0  0  0  0  0  0  0
    0.0103   -0.5772    0.8163 H   0  0  0  0  0  0  0  0  0  0  0  0
   -1.2356    0.8270   -0.0000 N   0  0  0  0  0  4  0  0  0  0  0  0
   -1.1396    1.5669    0.6653 H   0  0  0  0  0  0  0  0  0  0  0  0
   -1.3764    1.2128   -0.9117 H   0  0  0  0  0  0  0  0  0  0  0  0
   -2.0185    0.2555    0.2466 H   0  0  0  0  0  0  0  0  0  0  0  0
    0.2394    1.4450    4.0566 C   0  0  0  0  0  0  0  0  0  0  0  0
    0.5406    2.3885    4.3463 H   0  0  0  0  0  0  0  0  0  0  0  0
    1.0670    1.0412    3.5893 H   0  0  0  0  0  0  0  0  0  0  0  0
    0.0383    0.8628    4.9560 H   0  0  0  0  0  0  0  0  0  0  0  0
   -1.1519    1.5372    2.9238 S   0  0  0  0  0  0  0  0  0  0  0  0
   -2.1150    2.8607    3.6449 C   0  0  0  0  0  0  0  0  0  0  0  0
   -3.0893    2.6305    3.6029 H   0  0  0  0  0  0  0  0  0  0  0  0
   -1.8473    2.9905    4.6011 H   0  0  0  0  0  0  0  0  0  0  0  0
   -1.9540    3.7099    3.1383 H   0  0  0  0  0  0  0  0  0  0  0  0
  1  5  1  0
  5  8  1  0
  1  2  1  0
  1  3  1  0
  1  4  1  0
  5  6  1  0
  5  7  1  0
  8  9  1  0
  8 10  1  0
  8 11  1  0
 12 16  1  0
 16 17  1  0
 12 13  1  0
 12 14  1  0
 12 15  1  0
 17 18  1  0
 17 19  1  0
 17 20  1  0
M  CHG  1   8   1
M  END
>  <PDB_ID>  (140) 
pdb2dym

>  <RESIDUE_NAME>  (140) 
LYS   MET

>  <FRAG_NAME>  (140) 
ETAM   MSM

>  <FRAG_ATOM_NUM>  (140) 
fragi: 11  fragj: 9

>  <atom.prop.CHAIN_ID>  (140) 
A A A A A A A A A A A Z Z Z Z Z Z Z Z Z

>  <atom.prop.IS_HEAVY_ATOM>  (140) 
1 0 0 0 1 0 0 1 0 0 0 1 0 0 0 1 1 0 0 0

>  <DIFUSE_FUNC_ATOM>  (140) 
n/a

>  <FINAL_SINGLE_POINT_ENERGY>  (140) 
0

>  <NONCOV_INTER_ENERGY_QM>  (140) 
0

>  <FF_Energy>  (140) 
-4.15

>  <QM_Energy>  (140) 
-15.56

>  <source>  (140) 
ETAM_MSM

>  <Index>  (140) 
838

$$$$
ETAM-pdb2dym-E-LYS-5:MSM-pdb2dym-E-MET-1
     RDKit          3D

 20 18  0  0  0  0  0  0  0  0999 V2000
    1.2446    0.8787   -0.0000 C   0  0  0  0  0  0  0  0  0  0  0  0
    1.1704    1.5296    0.7457 H   0  0  0  0  0  0  0  0  0  0  0  0
    1.2983    1.3488   -0.8728 H   0  0  0  0  0  0  0  0  0  0  0  0
    2.1447    0.2799    0.1386 H   0  0  0  0  0  0  0  0  0  0  0  0
    0.0000    0.0000    0.0000 C   0  0  0  0  0  0  0  0  0  0  0  0
    0.0139   -0.5812   -0.8165 H   0  0  0  0  0  0  0  0  0  0  0  0
    0.0140   -0.5807    0.8165 H   0  0  0  0  0  0  0  0  0  0  0  0
   -1.2446    0.8163    0.0000 N   0  0  0  0  0  4  0  0  0  0  0  0
   -1.0092    1.7795    0.1269 H   0  0  0  0  0  0  0  0  0  0  0  0
   -1.7176    0.6991   -0.8724 H   0  0  0  0  0  0  0  0  0  0  0  0
   -1.8383    0.5161    0.7456 H   0  0  0  0  0  0  0  0  0  0  0  0
   -0.2194   -0.4787    3.8315 C   0  0  0  0  0  0  0  0  0  0  0  0
    0.3863    0.0525    3.1918 H   0  0  0  0  0  0  0  0  0  0  0  0
   -0.0344   -1.4677    3.6137 H   0  0  0  0  0  0  0  0  0  0  0  0
    0.1231   -0.2904    4.8490 H   0  0  0  0  0  0  0  0  0  0  0  0
   -1.9598   -0.0732    3.5562 S   0  0  0  0  0  0  0  0  0  0  0  0
   -2.7271   -1.6332    3.9856 C   0  0  0  0  0  0  0  0  0  0  0  0
   -2.5808   -1.8236    4.9579 H   0  0  0  0  0  0  0  0  0  0  0  0
   -3.7105   -1.5862    3.8021 H   0  0  0  0  0  0  0  0  0  0  0  0
   -2.3235   -2.3686    3.4390 H   0  0  0  0  0  0  0  0  0  0  0  0
  1  5  1  0
  5  8  1  0
  1  2  1  0
  1  3  1  0
  1  4  1  0
  5  6  1  0
  5  7  1  0
  8  9  1  0
  8 10  1  0
  8 11  1  0
 12 16  1  0
 16 17  1  0
 12 13  1  0
 12 14  1  0
 12 15  1  0
 17 18  1  0
 17 19  1  0
 17 20  1  0
M  CHG  1   8   1
M  END
>  <PDB_ID>  (141) 
pdb2dym

>  <RESIDUE_NAME>  (141) 
LYS   MET

>  <FRAG_NAME>  (141) 
ETAM   MSM

>  <FRAG_ATOM_NUM>  (141) 
fragi: 11  fragj: 9

>  <atom.prop.CHAIN_ID>  (141) 
A A A A A A A A A A A Z Z Z Z Z Z Z Z Z

>  <atom.prop.IS_HEAVY_ATOM>  (141) 
1 0 0 0 1 0 0 1 0 0 0 1 0 0 0 1 1 0 0 0

>  <DIFUSE_FUNC_ATOM>  (141) 
n/a

>  <FINAL_SINGLE_POINT_ENERGY>  (141) 
0

>  <NONCOV_INTER_ENERGY_QM>  (141) 
0

>  <FF_Energy>  (141) 
-4.69

>  <QM_Energy>  (141) 
-12.77

>  <source>  (141) 
ETAM_MSM

>  <Index>  (141) 
839

$$$$
ETAM-pdb2dym-E-LYS-149:MSM-pdb2dym-E-MET-163
     RDKit          3D

 20 18  0  0  0  0  0  0  0  0999 V2000
    1.2523    0.8671   -0.0000 C   0  0  0  0  0  0  0  0  0  0  0  0
    2.0510    0.2728   -0.0174 H   0  0  0  0  0  0  0  0  0  0  0  0
    1.2543    1.4228    0.8266 H   0  0  0  0  0  0  0  0  0  0  0  0
    1.2919    1.5283   -0.8656 H   0  0  0  0  0  0  0  0  0  0  0  0
    0.0000    0.0000    0.0000 C   0  0  0  0  0  0  0  0  0  0  0  0
    0.0127   -0.5875   -0.8163 H   0  0  0  0  0  0  0  0  0  0  0  0
    0.0118   -0.5879    0.8165 H   0  0  0  0  0  0  0  0  0  0  0  0
   -1.2523    0.8077   -0.0000 N   0  0  0  0  0  4  0  0  0  0  0  0
   -1.5169    1.0080   -0.9431 H   0  0  0  0  0  0  0  0  0  0  0  0
   -1.9798    0.2904    0.4501 H   0  0  0  0  0  0  0  0  0  0  0  0
   -1.0944    1.6627    0.4935 H   0  0  0  0  0  0  0  0  0  0  0  0
   -0.0333   -1.9731   -3.1752 C   0  0  0  0  0  0  0  0  0  0  0  0
    0.4529   -1.0889   -3.3636 H   0  0  0  0  0  0  0  0  0  0  0  0
   -1.0136   -1.7139   -3.0102 H   0  0  0  0  0  0  0  0  0  0  0  0
    0.0148   -2.5905   -4.0722 H   0  0  0  0  0  0  0  0  0  0  0  0
    0.6653   -2.7838   -1.7112 S   0  0  0  0  0  0  0  0  0  0  0  0
    2.2971   -2.0377   -1.6468 C   0  0  0  0  0  0  0  0  0  0  0  0
    2.7257   -2.2490   -0.7683 H   0  0  0  0  0  0  0  0  0  0  0  0
    2.8599   -2.4027   -2.3889 H   0  0  0  0  0  0  0  0  0  0  0  0
    2.2148   -1.0454   -1.7474 H   0  0  0  0  0  0  0  0  0  0  0  0
  1  5  1  0
  5  8  1  0
  1  2  1  0
  1  3  1  0
  1  4  1  0
  5  6  1  0
  5  7  1  0
  8  9  1  0
  8 10  1  0
  8 11  1  0
 12 16  1  0
 16 17  1  0
 12 13  1  0
 12 14  1  0
 12 15  1  0
 17 18  1  0
 17 19  1  0
 17 20  1  0
M  CHG  1   8   1
M  END
>  <PDB_ID>  (142) 
pdb2dym

>  <RESIDUE_NAME>  (142) 
LYS   MET

>  <FRAG_NAME>  (142) 
ETAM   MSM

>  <FRAG_ATOM_NUM>  (142) 
fragi: 11  fragj: 9

>  <atom.prop.CHAIN_ID>  (142) 
A A A A A A A A A A A Z Z Z Z Z Z Z Z Z

>  <atom.prop.IS_HEAVY_ATOM>  (142) 
1 0 0 0 1 0 0 1 0 0 0 1 0 0 0 1 1 0 0 0

>  <DIFUSE_FUNC_ATOM>  (142) 
n/a

>  <FINAL_SINGLE_POINT_ENERGY>  (142) 
0

>  <NONCOV_INTER_ENERGY_QM>  (142) 
0

>  <FF_Energy>  (142) 
1.98

>  <QM_Energy>  (142) 
-3.84

>  <source>  (142) 
ETAM_MSM

>  <Index>  (142) 
841

$$$$
ETAM-pdb2dym-G-LYS-149:MSM-pdb2dym-G-MET-163
     RDKit          3D

 20 18  0  0  0  0  0  0  0  0999 V2000
    1.2416    0.8670    0.0000 C   0  0  0  0  0  0  0  0  0  0  0  0
    1.2665    1.3969    0.8386 H   0  0  0  0  0  0  0  0  0  0  0  0
    1.2207    1.4632   -0.7928 H   0  0  0  0  0  0  0  0  0  0  0  0
    2.1450    0.2592   -0.0499 H   0  0  0  0  0  0  0  0  0  0  0  0
    0.0000    0.0000    0.0000 C   0  0  0  0  0  0  0  0  0  0  0  0
    0.0046   -0.5809   -0.8167 H   0  0  0  0  0  0  0  0  0  0  0  0
    0.0049   -0.5814    0.8163 H   0  0  0  0  0  0  0  0  0  0  0  0
   -1.2416    0.8276   -0.0000 N   0  0  0  0  0  4  0  0  0  0  0  0
   -1.2965    1.3396   -0.8556 H   0  0  0  0  0  0  0  0  0  0  0  0
   -2.0368    0.2292    0.0855 H   0  0  0  0  0  0  0  0  0  0  0  0
   -1.2144    1.4621    0.7710 H   0  0  0  0  0  0  0  0  0  0  0  0
   -0.3582   -1.5718    3.5534 C   0  0  0  0  0  0  0  0  0  0  0  0
    0.5702   -1.8437    3.2279 H   0  0  0  0  0  0  0  0  0  0  0  0
   -1.0207   -1.9717    2.8877 H   0  0  0  0  0  0  0  0  0  0  0  0
   -0.5293   -2.0282    4.5283 H   0  0  0  0  0  0  0  0  0  0  0  0
   -0.5148    0.2337    3.6067 S   0  0  0  0  0  0  0  0  0  0  0  0
   -2.2982    0.4231    3.6156 C   0  0  0  0  0  0  0  0  0  0  0  0
   -2.7305   -0.4790    3.6289 H   0  0  0  0  0  0  0  0  0  0  0  0
   -2.5757    0.9372    4.4277 H   0  0  0  0  0  0  0  0  0  0  0  0
   -2.5867    0.9177    2.7949 H   0  0  0  0  0  0  0  0  0  0  0  0
  1  5  1  0
  5  8  1  0
  1  2  1  0
  1  3  1  0
  1  4  1  0
  5  6  1  0
  5  7  1  0
  8  9  1  0
  8 10  1  0
  8 11  1  0
 12 16  1  0
 16 17  1  0
 12 13  1  0
 12 14  1  0
 12 15  1  0
 17 18  1  0
 17 19  1  0
 17 20  1  0
M  CHG  1   8   1
M  END
>  <PDB_ID>  (143) 
pdb2dym

>  <RESIDUE_NAME>  (143) 
LYS   MET

>  <FRAG_NAME>  (143) 
ETAM   MSM

>  <FRAG_ATOM_NUM>  (143) 
fragi: 11  fragj: 9

>  <atom.prop.CHAIN_ID>  (143) 
A A A A A A A A A A A Z Z Z Z Z Z Z Z Z

>  <atom.prop.IS_HEAVY_ATOM>  (143) 
1 0 0 0 1 0 0 1 0 0 0 1 0 0 0 1 1 0 0 0

>  <DIFUSE_FUNC_ATOM>  (143) 
n/a

>  <FINAL_SINGLE_POINT_ENERGY>  (143) 
0

>  <NONCOV_INTER_ENERGY_QM>  (143) 
0

>  <FF_Energy>  (143) 
-3.59

>  <QM_Energy>  (143) 
-9.16

>  <source>  (143) 
ETAM_MSM

>  <Index>  (143) 
844

$$$$
ETAM-pdb2dzd-B-LYS-163:MSM-pdb2dzd-B-MET-173
     RDKit          3D

 20 18  0  0  0  0  0  0  0  0999 V2000
    1.2636    0.8656    0.0000 C   0  0  0  0  0  0  0  0  0  0  0  0
    1.1535    1.5783    0.6779 H   0  0  0  0  0  0  0  0  0  0  0  0
    1.3796    1.2470   -0.9056 H   0  0  0  0  0  0  0  0  0  0  0  0
    2.1380    0.2653    0.2512 H   0  0  0  0  0  0  0  0  0  0  0  0
    0.0000    0.0000    0.0000 C   0  0  0  0  0  0  0  0  0  0  0  0
    0.0170   -0.5928   -0.8161 H   0  0  0  0  0  0  0  0  0  0  0  0
    0.0165   -0.5927    0.8164 H   0  0  0  0  0  0  0  0  0  0  0  0
   -1.2636    0.7940    0.0000 N   0  0  0  0  0  4  0  0  0  0  0  0
   -1.8224    0.5246   -0.7835 H   0  0  0  0  0  0  0  0  0  0  0  0
   -1.7641    0.6170    0.8468 H   0  0  0  0  0  0  0  0  0  0  0  0
   -1.0418    1.7656   -0.0627 H   0  0  0  0  0  0  0  0  0  0  0  0
    1.3497   -2.7866   -1.7242 C   0  0  0  0  0  0  0  0  0  0  0  0
    1.3594   -3.7494   -1.3655 H   0  0  0  0  0  0  0  0  0  0  0  0
    1.5415   -2.1932   -0.9080 H   0  0  0  0  0  0  0  0  0  0  0  0
    2.1668   -2.6735   -2.4367 H   0  0  0  0  0  0  0  0  0  0  0  0
   -0.2546   -2.3900   -2.4348 S   0  0  0  0  0  0  0  0  0  0  0  0
    0.0949   -0.8368   -3.2096 C   0  0  0  0  0  0  0  0  0  0  0  0
    0.7350   -0.9669   -3.9722 H   0  0  0  0  0  0  0  0  0  0  0  0
   -0.7522   -0.4286   -3.5645 H   0  0  0  0  0  0  0  0  0  0  0  0
    0.5065   -0.2040   -2.5464 H   0  0  0  0  0  0  0  0  0  0  0  0
  1  5  1  0
  5  8  1  0
  1  2  1  0
  1  3  1  0
  1  4  1  0
  5  6  1  0
  5  7  1  0
  8  9  1  0
  8 10  1  0
  8 11  1  0
 12 16  1  0
 16 17  1  0
 12 13  1  0
 12 14  1  0
 12 15  1  0
 17 18  1  0
 17 19  1  0
 17 20  1  0
M  CHG  1   8   1
M  END
>  <PDB_ID>  (144) 
pdb2dzd

>  <RESIDUE_NAME>  (144) 
LYS   MET

>  <FRAG_NAME>  (144) 
ETAM   MSM

>  <FRAG_ATOM_NUM>  (144) 
fragi: 11  fragj: 9

>  <atom.prop.CHAIN_ID>  (144) 
A A A A A A A A A A A Z Z Z Z Z Z Z Z Z

>  <atom.prop.IS_HEAVY_ATOM>  (144) 
1 0 0 0 1 0 0 1 0 0 0 1 0 0 0 1 1 0 0 0

>  <DIFUSE_FUNC_ATOM>  (144) 
n/a

>  <FINAL_SINGLE_POINT_ENERGY>  (144) 
0

>  <NONCOV_INTER_ENERGY_QM>  (144) 
0

>  <FF_Energy>  (144) 
7.05

>  <QM_Energy>  (144) 
-3.69

>  <source>  (144) 
ETAM_MSM

>  <Index>  (144) 
846

$$$$
ETAM-pdb2e2d-A-LYS-249:MSM-pdb2e2d-C-MET-1135
     RDKit          3D

 20 18  0  0  0  0  0  0  0  0999 V2000
    1.2516    0.8688    0.0000 C   0  0  0  0  0  0  0  0  0  0  0  0
    1.0369    1.7337    0.4407 H   0  0  0  0  0  0  0  0  0  0  0  0
    1.5328    1.0192   -0.9415 H   0  0  0  0  0  0  0  0  0  0  0  0
    2.0696    0.3927    0.5408 H   0  0  0  0  0  0  0  0  0  0  0  0
    0.0000    0.0000    0.0000 C   0  0  0  0  0  0  0  0  0  0  0  0
    0.0108   -0.5853   -0.8159 H   0  0  0  0  0  0  0  0  0  0  0  0
    0.0114   -0.5856    0.8159 H   0  0  0  0  0  0  0  0  0  0  0  0
   -1.2516    0.8129    0.0000 N   0  0  0  0  0  4  0  0  0  0  0  0
   -1.9224    0.3844   -0.6029 H   0  0  0  0  0  0  0  0  0  0  0  0
   -1.6155    0.8580    0.9294 H   0  0  0  0  0  0  0  0  0  0  0  0
   -1.0461    1.7339   -0.3262 H   0  0  0  0  0  0  0  0  0  0  0  0
   -1.7854   -0.5379   -2.5592 C   0  0  0  0  0  0  0  0  0  0  0  0
   -2.2956    0.2703   -2.1773 H   0  0  0  0  0  0  0  0  0  0  0  0
   -1.3884   -1.0134   -1.7371 H   0  0  0  0  0  0  0  0  0  0  0  0
   -2.5076   -1.2073   -3.0266 H   0  0  0  0  0  0  0  0  0  0  0  0
   -0.4672    0.0103   -3.6753 S   0  0  0  0  0  0  0  0  0  0  0  0
   -1.3558    0.1588   -5.2397 C   0  0  0  0  0  0  0  0  0  0  0  0
   -1.1063    1.0203   -5.6791 H   0  0  0  0  0  0  0  0  0  0  0  0
   -1.1077   -0.6052   -5.8326 H   0  0  0  0  0  0  0  0  0  0  0  0
   -2.3385    0.1426   -5.0618 H   0  0  0  0  0  0  0  0  0  0  0  0
  1  5  1  0
  5  8  1  0
  1  2  1  0
  1  3  1  0
  1  4  1  0
  5  6  1  0
  5  7  1  0
  8  9  1  0
  8 10  1  0
  8 11  1  0
 12 16  1  0
 16 17  1  0
 12 13  1  0
 12 14  1  0
 12 15  1  0
 17 18  1  0
 17 19  1  0
 17 20  1  0
M  CHG  1   8   1
M  END
>  <PDB_ID>  (145) 
pdb2e2d

>  <RESIDUE_NAME>  (145) 
LYS   MET

>  <FRAG_NAME>  (145) 
ETAM   MSM

>  <FRAG_ATOM_NUM>  (145) 
fragi: 11  fragj: 9

>  <atom.prop.CHAIN_ID>  (145) 
A A A A A A A A A A A Z Z Z Z Z Z Z Z Z

>  <atom.prop.IS_HEAVY_ATOM>  (145) 
1 0 0 0 1 0 0 1 0 0 0 1 0 0 0 1 1 0 0 0

>  <DIFUSE_FUNC_ATOM>  (145) 
n/a

>  <FINAL_SINGLE_POINT_ENERGY>  (145) 
0

>  <NONCOV_INTER_ENERGY_QM>  (145) 
0

>  <FF_Energy>  (145) 
10.49

>  <QM_Energy>  (145) 
-0.4

>  <source>  (145) 
ETAM_MSM

>  <Index>  (145) 
854

$$$$
ETAM-pdb2e3d-A-LYS-230:MSM-pdb2e3d-A-MET-247
     RDKit          3D

 20 18  0  0  0  0  0  0  0  0999 V2000
    1.2100    0.8825    0.0000 C   0  0  0  0  0  0  0  0  0  0  0  0
    2.0328    0.3130   -0.0566 H   0  0  0  0  0  0  0  0  0  0  0  0
    1.2330    1.4103    0.8514 H   0  0  0  0  0  0  0  0  0  0  0  0
    1.2230    1.5822   -0.8357 H   0  0  0  0  0  0  0  0  0  0  0  0
    0.0000    0.0000    0.0000 C   0  0  0  0  0  0  0  0  0  0  0  0
    0.0013   -0.5676   -0.8162 H   0  0  0  0  0  0  0  0  0  0  0  0
    0.0013   -0.5674    0.8166 H   0  0  0  0  0  0  0  0  0  0  0  0
   -1.2100    0.8521   -0.0000 N   0  0  0  0  0  4  0  0  0  0  0  0
   -1.5122    1.0073    0.9419 H   0  0  0  0  0  0  0  0  0  0  0  0
   -1.0013    1.7314   -0.4305 H   0  0  0  0  0  0  0  0  0  0  0  0
   -1.9409    0.3982   -0.5114 H   0  0  0  0  0  0  0  0  0  0  0  0
   -2.1906    3.6709    4.0698 C   0  0  0  0  0  0  0  0  0  0  0  0
   -2.6339    2.7617    4.2435 H   0  0  0  0  0  0  0  0  0  0  0  0
   -2.9656    4.3387    3.9830 H   0  0  0  0  0  0  0  0  0  0  0  0
   -1.6229    3.9372    4.9614 H   0  0  0  0  0  0  0  0  0  0  0  0
   -1.2002    3.6258    2.5389 S   0  0  0  0  0  0  0  0  0  0  0  0
    0.3882    3.3928    3.3420 C   0  0  0  0  0  0  0  0  0  0  0  0
    0.9079    2.6893    2.8564 H   0  0  0  0  0  0  0  0  0  0  0  0
    0.8988    4.2531    3.3273 H   0  0  0  0  0  0  0  0  0  0  0  0
    0.2443    3.1069    4.2900 H   0  0  0  0  0  0  0  0  0  0  0  0
  1  5  1  0
  5  8  1  0
  1  2  1  0
  1  3  1  0
  1  4  1  0
  5  6  1  0
  5  7  1  0
  8  9  1  0
  8 10  1  0
  8 11  1  0
 12 16  1  0
 16 17  1  0
 12 13  1  0
 12 14  1  0
 12 15  1  0
 17 18  1  0
 17 19  1  0
 17 20  1  0
M  CHG  1   8   1
M  END
>  <PDB_ID>  (146) 
pdb2e3d

>  <RESIDUE_NAME>  (146) 
LYS   MET

>  <FRAG_NAME>  (146) 
ETAM   MSM

>  <FRAG_ATOM_NUM>  (146) 
fragi: 11  fragj: 9

>  <atom.prop.CHAIN_ID>  (146) 
A A A A A A A A A A A Z Z Z Z Z Z Z Z Z

>  <atom.prop.IS_HEAVY_ATOM>  (146) 
1 0 0 0 1 0 0 1 0 0 0 1 0 0 0 1 1 0 0 0

>  <DIFUSE_FUNC_ATOM>  (146) 
n/a

>  <FINAL_SINGLE_POINT_ENERGY>  (146) 
0

>  <NONCOV_INTER_ENERGY_QM>  (146) 
0

>  <FF_Energy>  (146) 
-4.8

>  <QM_Energy>  (146) 
-11.25

>  <source>  (146) 
ETAM_MSM

>  <Index>  (146) 
865

$$$$
ETAM-pdb1dfu-P-LYS-71:MSM-pdb1dfu-P-MET-1
     RDKit          3D

 20 18  0  0  0  0  0  0  0  0999 V2000
    1.2345    0.8791    0.0000 C   0  0  0  0  0  0  0  0  0  0  0  0
    1.2835    1.3588    0.8717 H   0  0  0  0  0  0  0  0  0  0  0  0
    1.1611    1.5320   -0.7483 H   0  0  0  0  0  0  0  0  0  0  0  0
    2.1438    0.2925   -0.1313 H   0  0  0  0  0  0  0  0  0  0  0  0
    0.0000    0.0000    0.0000 C   0  0  0  0  0  0  0  0  0  0  0  0
    0.0095   -0.5765   -0.8163 H   0  0  0  0  0  0  0  0  0  0  0  0
    0.0095   -0.5769    0.8166 H   0  0  0  0  0  0  0  0  0  0  0  0
   -1.2345    0.8287   -0.0000 N   0  0  0  0  0  4  0  0  0  0  0  0
   -1.0644    1.6783    0.4982 H   0  0  0  0  0  0  0  0  0  0  0  0
   -1.4931    1.0397   -0.9430 H   0  0  0  0  0  0  0  0  0  0  0  0
   -1.9744    0.3235    0.4441 H   0  0  0  0  0  0  0  0  0  0  0  0
   -4.2547    4.0214   -0.6923 C   0  0  0  0  0  0  0  0  0  0  0  0
   -4.1223    4.5631   -1.5432 H   0  0  0  0  0  0  0  0  0  0  0  0
   -3.5425    4.3305   -0.0355 H   0  0  0  0  0  0  0  0  0  0  0  0
   -5.2367    4.2526   -0.2797 H   0  0  0  0  0  0  0  0  0  0  0  0
   -4.1225    2.2769   -1.0116 S   0  0  0  0  0  0  0  0  0  0  0  0
   -3.8997    1.6442    0.6708 C   0  0  0  0  0  0  0  0  0  0  0  0
   -4.7681    1.7038    1.1589 H   0  0  0  0  0  0  0  0  0  0  0  0
   -3.6013    0.6931    0.6246 H   0  0  0  0  0  0  0  0  0  0  0  0
   -3.2093    2.1941    1.1371 H   0  0  0  0  0  0  0  0  0  0  0  0
  1  5  1  0
  5  8  1  0
  1  2  1  0
  1  3  1  0
  1  4  1  0
  5  6  1  0
  5  7  1  0
  8  9  1  0
  8 10  1  0
  8 11  1  0
 12 16  1  0
 16 17  1  0
 12 13  1  0
 12 14  1  0
 12 15  1  0
 17 18  1  0
 17 19  1  0
 17 20  1  0
M  CHG  1   8   1
M  END
>  <PDB_ID>  (147) 
pdb1dfu

>  <RESIDUE_NAME>  (147) 
LYS   MET

>  <FRAG_NAME>  (147) 
ETAM   MSM

>  <FRAG_ATOM_NUM>  (147) 
fragi: 11  fragj: 9

>  <atom.prop.CHAIN_ID>  (147) 
A A A A A A A A A A A Z Z Z Z Z Z Z Z Z

>  <atom.prop.IS_HEAVY_ATOM>  (147) 
1 0 0 0 1 0 0 1 0 0 0 1 0 0 0 1 1 0 0 0

>  <DIFUSE_FUNC_ATOM>  (147) 
n/a

>  <FINAL_SINGLE_POINT_ENERGY>  (147) 
0

>  <NONCOV_INTER_ENERGY_QM>  (147) 
0

>  <FF_Energy>  (147) 
2.51

>  <QM_Energy>  (147) 
-4.61

>  <source>  (147) 
ETAM_MSM

>  <Index>  (147) 
875

$$$$
ETAM-pdb2e5y-A-LYS-97:MSM-pdb2e5y-A-MET-124
     RDKit          3D

 20 18  0  0  0  0  0  0  0  0999 V2000
    1.2357    0.9056   -0.0000 C   0  0  0  0  0  0  0  0  0  0  0  0
    1.3951    1.2144    0.9265 H   0  0  0  0  0  0  0  0  0  0  0  0
    1.0627    1.6685   -0.6069 H   0  0  0  0  0  0  0  0  0  0  0  0
    2.1103    0.3579   -0.3510 H   0  0  0  0  0  0  0  0  0  0  0  0
    0.0000    0.0000    0.0000 C   0  0  0  0  0  0  0  0  0  0  0  0
    0.0317   -0.5774   -0.8162 H   0  0  0  0  0  0  0  0  0  0  0  0
    0.0310   -0.5776    0.8160 H   0  0  0  0  0  0  0  0  0  0  0  0
   -1.2357    0.8001    0.0000 N   0  0  0  0  0  4  0  0  0  0  0  0
   -2.0284    0.2011   -0.1302 H   0  0  0  0  0  0  0  0  0  0  0  0
   -1.3288    1.2824    0.8741 H   0  0  0  0  0  0  0  0  0  0  0  0
   -1.2057    1.4710   -0.7439 H   0  0  0  0  0  0  0  0  0  0  0  0
    0.6687   -2.5162    4.4193 C   0  0  0  0  0  0  0  0  0  0  0  0
    0.1759   -3.3383    4.5752 H   0  0  0  0  0  0  0  0  0  0  0  0
    0.4380   -1.7900    5.0206 H   0  0  0  0  0  0  0  0  0  0  0  0
    1.7412   -2.7075    4.4514 H   0  0  0  0  0  0  0  0  0  0  0  0
    0.5258   -2.0023    2.7172 S   0  0  0  0  0  0  0  0  0  0  0  0
    0.8950   -3.6239    2.0568 C   0  0  0  0  0  0  0  0  0  0  0  0
    0.4632   -3.7283    1.1593 H   0  0  0  0  0  0  0  0  0  0  0  0
    1.8862   -3.7303    1.9612 H   0  0  0  0  0  0  0  0  0  0  0  0
    0.5442   -4.3281    2.6772 H   0  0  0  0  0  0  0  0  0  0  0  0
  1  5  1  0
  5  8  1  0
  1  2  1  0
  1  3  1  0
  1  4  1  0
  5  6  1  0
  5  7  1  0
  8  9  1  0
  8 10  1  0
  8 11  1  0
 12 16  1  0
 16 17  1  0
 12 13  1  0
 12 14  1  0
 12 15  1  0
 17 18  1  0
 17 19  1  0
 17 20  1  0
M  CHG  1   8   1
M  END
>  <PDB_ID>  (148) 
pdb2e5y

>  <RESIDUE_NAME>  (148) 
LYS   MET

>  <FRAG_NAME>  (148) 
ETAM   MSM

>  <FRAG_ATOM_NUM>  (148) 
fragi: 11  fragj: 9

>  <atom.prop.CHAIN_ID>  (148) 
A A A A A A A A A A A Z Z Z Z Z Z Z Z Z

>  <atom.prop.IS_HEAVY_ATOM>  (148) 
1 0 0 0 1 0 0 1 0 0 0 1 0 0 0 1 1 0 0 0

>  <DIFUSE_FUNC_ATOM>  (148) 
n/a

>  <FINAL_SINGLE_POINT_ENERGY>  (148) 
0

>  <NONCOV_INTER_ENERGY_QM>  (148) 
0

>  <FF_Energy>  (148) 
-0.22

>  <QM_Energy>  (148) 
-8.08

>  <source>  (148) 
ETAM_MSM

>  <Index>  (148) 
882

$$$$
ETAM-pdb2e7y-B-LYS-239:MSM-pdb2e7y-B-MET-280
     RDKit          3D

 20 18  0  0  0  0  0  0  0  0999 V2000
    1.2512    0.8610    0.0000 C   0  0  0  0  0  0  0  0  0  0  0  0
    1.3347    1.3067    0.8922 H   0  0  0  0  0  0  0  0  0  0  0  0
    1.1604    1.5580   -0.7123 H   0  0  0  0  0  0  0  0  0  0  0  0
    2.1623    0.2928   -0.1871 H   0  0  0  0  0  0  0  0  0  0  0  0
    0.0000    0.0000    0.0000 C   0  0  0  0  0  0  0  0  0  0  0  0
   -0.0003   -0.5813   -0.8161 H   0  0  0  0  0  0  0  0  0  0  0  0
   -0.0007   -0.5805    0.8162 H   0  0  0  0  0  0  0  0  0  0  0  0
   -1.2512    0.8345   -0.0000 N   0  0  0  0  0  4  0  0  0  0  0  0
   -1.1427    1.5800    0.6523 H   0  0  0  0  0  0  0  0  0  0  0  0
   -1.3960    1.2003   -0.9155 H   0  0  0  0  0  0  0  0  0  0  0  0
   -2.0227    0.2605    0.2635 H   0  0  0  0  0  0  0  0  0  0  0  0
   -5.0960   -0.7439   -1.4228 C   0  0  0  0  0  0  0  0  0  0  0  0
   -5.4413    0.2343   -1.3915 H   0  0  0  0  0  0  0  0  0  0  0  0
   -5.2415   -1.0875   -0.4543 H   0  0  0  0  0  0  0  0  0  0  0  0
   -5.7588   -1.3083   -2.0788 H   0  0  0  0  0  0  0  0  0  0  0  0
   -3.3337   -0.7845   -1.8553 S   0  0  0  0  0  0  0  0  0  0  0  0
   -3.3031    0.4437   -3.1378 C   0  0  0  0  0  0  0  0  0  0  0  0
   -3.8543    1.2377   -2.8668 H   0  0  0  0  0  0  0  0  0  0  0  0
   -2.3592    0.7442   -3.3033 H   0  0  0  0  0  0  0  0  0  0  0  0
   -3.6773    0.0623   -3.9875 H   0  0  0  0  0  0  0  0  0  0  0  0
  1  5  1  0
  5  8  1  0
  1  2  1  0
  1  3  1  0
  1  4  1  0
  5  6  1  0
  5  7  1  0
  8  9  1  0
  8 10  1  0
  8 11  1  0
 12 16  1  0
 16 17  1  0
 12 13  1  0
 12 14  1  0
 12 15  1  0
 17 18  1  0
 17 19  1  0
 17 20  1  0
M  CHG  1   8   1
M  END
>  <PDB_ID>  (149) 
pdb2e7y

>  <RESIDUE_NAME>  (149) 
LYS   MET

>  <FRAG_NAME>  (149) 
ETAM   MSM

>  <FRAG_ATOM_NUM>  (149) 
fragi: 11  fragj: 9

>  <atom.prop.CHAIN_ID>  (149) 
A A A A A A A A A A A Z Z Z Z Z Z Z Z Z

>  <atom.prop.IS_HEAVY_ATOM>  (149) 
1 0 0 0 1 0 0 1 0 0 0 1 0 0 0 1 1 0 0 0

>  <DIFUSE_FUNC_ATOM>  (149) 
n/a

>  <FINAL_SINGLE_POINT_ENERGY>  (149) 
0

>  <NONCOV_INTER_ENERGY_QM>  (149) 
0

>  <FF_Energy>  (149) 
-4.68

>  <QM_Energy>  (149) 
-12.54

>  <source>  (149) 
ETAM_MSM

>  <Index>  (149) 
901

$$$$
ETAM-pdb1djo-A-LYS-1173:MSM-pdb1djo-A-MET-1126
     RDKit          3D

 20 18  0  0  0  0  0  0  0  0999 V2000
    1.2487    0.8749   -0.0000 C   0  0  0  0  0  0  0  0  0  0  0  0
    1.2227    1.4584    0.8028 H   0  0  0  0  0  0  0  0  0  0  0  0
    1.2496    1.4195   -0.8298 H   0  0  0  0  0  0  0  0  0  0  0  0
    2.1512    0.2645    0.0304 H   0  0  0  0  0  0  0  0  0  0  0  0
    0.0000    0.0000    0.0000 C   0  0  0  0  0  0  0  0  0  0  0  0
    0.0100   -0.5808   -0.8158 H   0  0  0  0  0  0  0  0  0  0  0  0
    0.0097   -0.5806    0.8164 H   0  0  0  0  0  0  0  0  0  0  0  0
   -1.2487    0.8218    0.0000 N   0  0  0  0  0  4  0  0  0  0  0  0
   -1.8640    0.4849    0.7105 H   0  0  0  0  0  0  0  0  0  0  0  0
   -1.0143    1.7754    0.1819 H   0  0  0  0  0  0  0  0  0  0  0  0
   -1.6903    0.7471   -0.8922 H   0  0  0  0  0  0  0  0  0  0  0  0
   -1.8476   -2.8540    4.2152 C   0  0  0  0  0  0  0  0  0  0  0  0
   -1.4339   -2.4324    5.0572 H   0  0  0  0  0  0  0  0  0  0  0  0
   -1.3675   -3.7562    4.1039 H   0  0  0  0  0  0  0  0  0  0  0  0
   -2.9026   -3.0462    4.4100 H   0  0  0  0  0  0  0  0  0  0  0  0
   -1.5537   -1.7964    2.7655 S   0  0  0  0  0  0  0  0  0  0  0  0
   -1.6436   -3.0056    1.4283 C   0  0  0  0  0  0  0  0  0  0  0  0
   -2.3162   -2.7021    0.7553 H   0  0  0  0  0  0  0  0  0  0  0  0
   -0.7467   -3.0858    0.9965 H   0  0  0  0  0  0  0  0  0  0  0  0
   -1.9175   -3.8901    1.8032 H   0  0  0  0  0  0  0  0  0  0  0  0
  1  5  1  0
  5  8  1  0
  1  2  1  0
  1  3  1  0
  1  4  1  0
  5  6  1  0
  5  7  1  0
  8  9  1  0
  8 10  1  0
  8 11  1  0
 12 16  1  0
 16 17  1  0
 12 13  1  0
 12 14  1  0
 12 15  1  0
 17 18  1  0
 17 19  1  0
 17 20  1  0
M  CHG  1   8   1
M  END
>  <PDB_ID>  (150) 
pdb1djo

>  <RESIDUE_NAME>  (150) 
LYS   MET

>  <FRAG_NAME>  (150) 
ETAM   MSM

>  <FRAG_ATOM_NUM>  (150) 
fragi: 11  fragj: 9

>  <atom.prop.CHAIN_ID>  (150) 
A A A A A A A A A A A Z Z Z Z Z Z Z Z Z

>  <atom.prop.IS_HEAVY_ATOM>  (150) 
1 0 0 0 1 0 0 1 0 0 0 1 0 0 0 1 1 0 0 0

>  <DIFUSE_FUNC_ATOM>  (150) 
n/a

>  <FINAL_SINGLE_POINT_ENERGY>  (150) 
0

>  <NONCOV_INTER_ENERGY_QM>  (150) 
0

>  <FF_Energy>  (150) 
-4.24

>  <QM_Energy>  (150) 
-9.46

>  <source>  (150) 
ETAM_MSM

>  <Index>  (150) 
907

$$$$
ETAM-pdb1dlc-A-LYS-126:MSM-pdb1dlc-A-MET-110
     RDKit          3D

 20 18  0  0  0  0  0  0  0  0999 V2000
    1.2714    0.8463   -0.0000 C   0  0  0  0  0  0  0  0  0  0  0  0
    1.2477    1.4551   -0.7931 H   0  0  0  0  0  0  0  0  0  0  0  0
    2.0591    0.2348   -0.0717 H   0  0  0  0  0  0  0  0  0  0  0  0
    1.3839    1.4537    0.8981 H   0  0  0  0  0  0  0  0  0  0  0  0
    0.0000    0.0000    0.0000 C   0  0  0  0  0  0  0  0  0  0  0  0
    0.0149   -0.6041   -0.8160 H   0  0  0  0  0  0  0  0  0  0  0  0
    0.0145   -0.6038    0.8163 H   0  0  0  0  0  0  0  0  0  0  0  0
   -1.2714    0.7802    0.0000 N   0  0  0  0  0  4  0  0  0  0  0  0
   -1.7805    0.5817    0.8364 H   0  0  0  0  0  0  0  0  0  0  0  0
   -1.0599    1.7559   -0.0413 H   0  0  0  0  0  0  0  0  0  0  0  0
   -1.8178    0.5214   -0.7953 H   0  0  0  0  0  0  0  0  0  0  0  0
   -3.0492    4.2137    1.0991 C   0  0  0  0  0  0  0  0  0  0  0  0
   -2.8973    5.1207    0.6451 H   0  0  0  0  0  0  0  0  0  0  0  0
   -3.8877    4.3334    1.6768 H   0  0  0  0  0  0  0  0  0  0  0  0
   -3.2664    3.4759    0.3267 H   0  0  0  0  0  0  0  0  0  0  0  0
   -1.6271    3.7652    2.1230 S   0  0  0  0  0  0  0  0  0  0  0  0
   -1.7338    4.9680    3.4076 C   0  0  0  0  0  0  0  0  0  0  0  0
   -1.8624    4.5181    4.2981 H   0  0  0  0  0  0  0  0  0  0  0  0
   -0.8915    5.5164    3.4442 H   0  0  0  0  0  0  0  0  0  0  0  0
   -2.5114    5.5857    3.2451 H   0  0  0  0  0  0  0  0  0  0  0  0
  1  5  1  0
  5  8  1  0
  1  2  1  0
  1  3  1  0
  1  4  1  0
  5  6  1  0
  5  7  1  0
  8  9  1  0
  8 10  1  0
  8 11  1  0
 12 16  1  0
 16 17  1  0
 12 13  1  0
 12 14  1  0
 12 15  1  0
 17 18  1  0
 17 19  1  0
 17 20  1  0
M  CHG  1   8   1
M  END
>  <PDB_ID>  (151) 
pdb1dlc

>  <RESIDUE_NAME>  (151) 
LYS   MET

>  <FRAG_NAME>  (151) 
ETAM   MSM

>  <FRAG_ATOM_NUM>  (151) 
fragi: 11  fragj: 9

>  <atom.prop.CHAIN_ID>  (151) 
A A A A A A A A A A A Z Z Z Z Z Z Z Z Z

>  <atom.prop.IS_HEAVY_ATOM>  (151) 
1 0 0 0 1 0 0 1 0 0 0 1 0 0 0 1 1 0 0 0

>  <DIFUSE_FUNC_ATOM>  (151) 
n/a

>  <FINAL_SINGLE_POINT_ENERGY>  (151) 
0

>  <NONCOV_INTER_ENERGY_QM>  (151) 
0

>  <FF_Energy>  (151) 
-4.6

>  <QM_Energy>  (151) 
-9.86

>  <source>  (151) 
ETAM_MSM

>  <Index>  (151) 
918

$$$$
ETAM-pdb2eb0-B-LYS-152:MSM-pdb2eb0-B-MET-257
     RDKit          3D

 20 18  0  0  0  0  0  0  0  0999 V2000
    1.2509    0.8605   -0.0000 C   0  0  0  0  0  0  0  0  0  0  0  0
    1.3151    1.3253    0.8710 H   0  0  0  0  0  0  0  0  0  0  0  0
    1.1919    1.5045   -0.7480 H   0  0  0  0  0  0  0  0  0  0  0  0
    2.1322    0.2336   -0.1359 H   0  0  0  0  0  0  0  0  0  0  0  0
    0.0000    0.0000    0.0000 C   0  0  0  0  0  0  0  0  0  0  0  0
    0.0110   -0.5911   -0.8161 H   0  0  0  0  0  0  0  0  0  0  0  0
    0.0106   -0.5914    0.8165 H   0  0  0  0  0  0  0  0  0  0  0  0
   -1.2509    0.8051    0.0000 N   0  0  0  0  0  4  0  0  0  0  0  0
   -1.0204    1.7765   -0.0416 H   0  0  0  0  0  0  0  0  0  0  0  0
   -1.8043    0.5580   -0.7953 H   0  0  0  0  0  0  0  0  0  0  0  0
   -1.7658    0.6188    0.8370 H   0  0  0  0  0  0  0  0  0  0  0  0
   -4.6088    4.7606   -1.2375 C   0  0  0  0  0  0  0  0  0  0  0  0
   -4.5387    5.4971   -0.5217 H   0  0  0  0  0  0  0  0  0  0  0  0
   -5.6088    4.7128   -1.4742 H   0  0  0  0  0  0  0  0  0  0  0  0
   -4.0636    5.0911   -2.1217 H   0  0  0  0  0  0  0  0  0  0  0  0
   -4.0402    3.1600   -0.5582 S   0  0  0  0  0  0  0  0  0  0  0  0
   -4.8462    2.0212   -1.6869 C   0  0  0  0  0  0  0  0  0  0  0  0
   -4.7871    1.0909   -1.3222 H   0  0  0  0  0  0  0  0  0  0  0  0
   -5.8074    2.2777   -1.7905 H   0  0  0  0  0  0  0  0  0  0  0  0
   -4.3937    2.0582   -2.5787 H   0  0  0  0  0  0  0  0  0  0  0  0
  1  5  1  0
  5  8  1  0
  1  2  1  0
  1  3  1  0
  1  4  1  0
  5  6  1  0
  5  7  1  0
  8  9  1  0
  8 10  1  0
  8 11  1  0
 12 16  1  0
 16 17  1  0
 12 13  1  0
 12 14  1  0
 12 15  1  0
 17 18  1  0
 17 19  1  0
 17 20  1  0
M  CHG  1   8   1
M  END
>  <PDB_ID>  (152) 
pdb2eb0

>  <RESIDUE_NAME>  (152) 
LYS   MET

>  <FRAG_NAME>  (152) 
ETAM   MSM

>  <FRAG_ATOM_NUM>  (152) 
fragi: 11  fragj: 9

>  <atom.prop.CHAIN_ID>  (152) 
A A A A A A A A A A A Z Z Z Z Z Z Z Z Z

>  <atom.prop.IS_HEAVY_ATOM>  (152) 
1 0 0 0 1 0 0 1 0 0 0 1 0 0 0 1 1 0 0 0

>  <DIFUSE_FUNC_ATOM>  (152) 
n/a

>  <FINAL_SINGLE_POINT_ENERGY>  (152) 
0

>  <NONCOV_INTER_ENERGY_QM>  (152) 
0

>  <FF_Energy>  (152) 
-4.29

>  <QM_Energy>  (152) 
-9.33

>  <source>  (152) 
ETAM_MSM

>  <Index>  (152) 
924

$$$$
ETAM-pdb2e9q-A-LYS-387:MSM-pdb2e9q-A-MET-347
     RDKit          3D

 20 18  0  0  0  0  0  0  0  0999 V2000
    1.2348    0.8624   -0.0000 C   0  0  0  0  0  0  0  0  0  0  0  0
    1.1853    1.5003    0.7631 H   0  0  0  0  0  0  0  0  0  0  0  0
    1.2840    1.3592   -0.8610 H   0  0  0  0  0  0  0  0  0  0  0  0
    2.1385    0.2626    0.1079 H   0  0  0  0  0  0  0  0  0  0  0  0
    0.0000    0.0000    0.0000 C   0  0  0  0  0  0  0  0  0  0  0  0
    0.0080   -0.5866   -0.8158 H   0  0  0  0  0  0  0  0  0  0  0  0
    0.0079   -0.5869    0.8159 H   0  0  0  0  0  0  0  0  0  0  0  0
   -1.2348    0.8151    0.0000 N   0  0  0  0  0  4  0  0  0  0  0  0
   -1.1940    1.4867    0.7414 H   0  0  0  0  0  0  0  0  0  0  0  0
   -1.3222    1.2922   -0.8754 H   0  0  0  0  0  0  0  0  0  0  0  0
   -2.0288    0.2217    0.1350 H   0  0  0  0  0  0  0  0  0  0  0  0
   -2.3255    0.8826   -5.0725 C   0  0  0  0  0  0  0  0  0  0  0  0
   -2.0875    0.8580   -6.0755 H   0  0  0  0  0  0  0  0  0  0  0  0
   -2.8409    1.7676   -4.9478 H   0  0  0  0  0  0  0  0  0  0  0  0
   -3.0047    0.0567   -4.8612 H   0  0  0  0  0  0  0  0  0  0  0  0
   -0.8525    0.8540   -4.0650 S   0  0  0  0  0  0  0  0  0  0  0  0
   -1.5188    1.1935   -2.5538 C   0  0  0  0  0  0  0  0  0  0  0  0
   -1.9120    0.3654   -2.1072 H   0  0  0  0  0  0  0  0  0  0  0  0
   -0.8312    1.5734   -1.9032 H   0  0  0  0  0  0  0  0  0  0  0  0
   -2.2737    1.8775   -2.6066 H   0  0  0  0  0  0  0  0  0  0  0  0
  1  5  1  0
  5  8  1  0
  1  2  1  0
  1  3  1  0
  1  4  1  0
  5  6  1  0
  5  7  1  0
  8  9  1  0
  8 10  1  0
  8 11  1  0
 12 16  1  0
 16 17  1  0
 12 13  1  0
 12 14  1  0
 12 15  1  0
 17 18  1  0
 17 19  1  0
 17 20  1  0
M  CHG  1   8   1
M  END
>  <PDB_ID>  (153) 
pdb2e9q

>  <RESIDUE_NAME>  (153) 
LYS   MET

>  <FRAG_NAME>  (153) 
ETAM   MSM

>  <FRAG_ATOM_NUM>  (153) 
fragi: 11  fragj: 9

>  <atom.prop.CHAIN_ID>  (153) 
A A A A A A A A A A A Z Z Z Z Z Z Z Z Z

>  <atom.prop.IS_HEAVY_ATOM>  (153) 
1 0 0 0 1 0 0 1 0 0 0 1 0 0 0 1 1 0 0 0

>  <DIFUSE_FUNC_ATOM>  (153) 
n/a

>  <FINAL_SINGLE_POINT_ENERGY>  (153) 
0

>  <NONCOV_INTER_ENERGY_QM>  (153) 
0

>  <FF_Energy>  (153) 
30.55

>  <QM_Energy>  (153) 
16.56

>  <source>  (153) 
ETAM_MSM

>  <Index>  (153) 
925

$$$$
ETAM-pdb2e8y-A-LYS-351:MSM-pdb2e8y-A-MET-175
     RDKit          3D

 20 18  0  0  0  0  0  0  0  0999 V2000
    1.2387    0.8681   -0.0000 C   0  0  0  0  0  0  0  0  0  0  0  0
    2.0413    0.2818    0.0673 H   0  0  0  0  0  0  0  0  0  0  0  0
    1.1974    1.4857    0.7807 H   0  0  0  0  0  0  0  0  0  0  0  0
    1.3127    1.4600   -0.9123 H   0  0  0  0  0  0  0  0  0  0  0  0
    0.0000    0.0000    0.0000 C   0  0  0  0  0  0  0  0  0  0  0  0
    0.0048   -0.5800   -0.8165 H   0  0  0  0  0  0  0  0  0  0  0  0
    0.0038   -0.5805    0.8165 H   0  0  0  0  0  0  0  0  0  0  0  0
   -1.2387    0.8300   -0.0000 N   0  0  0  0  0  4  0  0  0  0  0  0
   -1.9535    0.3563   -0.5117 H   0  0  0  0  0  0  0  0  0  0  0  0
   -1.5394    0.9741    0.9424 H   0  0  0  0  0  0  0  0  0  0  0  0
   -1.0454    1.7110   -0.4296 H   0  0  0  0  0  0  0  0  0  0  0  0
   -1.9364    4.6358   -0.6036 C   0  0  0  0  0  0  0  0  0  0  0  0
   -2.6669    4.0550   -0.1434 H   0  0  0  0  0  0  0  0  0  0  0  0
   -2.3951    5.5649   -0.7007 H   0  0  0  0  0  0  0  0  0  0  0  0
   -1.1159    4.7490    0.1049 H   0  0  0  0  0  0  0  0  0  0  0  0
   -1.4936    3.9664   -2.2013 S   0  0  0  0  0  0  0  0  0  0  0  0
   -3.0070    4.2843   -3.1394 C   0  0  0  0  0  0  0  0  0  0  0  0
   -3.7852    4.2832   -2.5142 H   0  0  0  0  0  0  0  0  0  0  0  0
   -2.9336    5.1740   -3.5870 H   0  0  0  0  0  0  0  0  0  0  0  0
   -3.1225    3.5684   -3.8253 H   0  0  0  0  0  0  0  0  0  0  0  0
  1  5  1  0
  5  8  1  0
  1  2  1  0
  1  3  1  0
  1  4  1  0
  5  6  1  0
  5  7  1  0
  8  9  1  0
  8 10  1  0
  8 11  1  0
 12 16  1  0
 16 17  1  0
 12 13  1  0
 12 14  1  0
 12 15  1  0
 17 18  1  0
 17 19  1  0
 17 20  1  0
M  CHG  1   8   1
M  END
>  <PDB_ID>  (154) 
pdb2e8y

>  <RESIDUE_NAME>  (154) 
LYS   MET

>  <FRAG_NAME>  (154) 
ETAM   MSM

>  <FRAG_ATOM_NUM>  (154) 
fragi: 11  fragj: 9

>  <atom.prop.CHAIN_ID>  (154) 
A A A A A A A A A A A Z Z Z Z Z Z Z Z Z

>  <atom.prop.IS_HEAVY_ATOM>  (154) 
1 0 0 0 1 0 0 1 0 0 0 1 0 0 0 1 1 0 0 0

>  <DIFUSE_FUNC_ATOM>  (154) 
n/a

>  <FINAL_SINGLE_POINT_ENERGY>  (154) 
0

>  <NONCOV_INTER_ENERGY_QM>  (154) 
0

>  <FF_Energy>  (154) 
-4.02

>  <QM_Energy>  (154) 
-10.75

>  <source>  (154) 
ETAM_MSM

>  <Index>  (154) 
927

$$$$
ETAM-pdb2ed6-J-LYS-123:MSM-pdb2ed6-J-MET-91
     RDKit          3D

 20 18  0  0  0  0  0  0  0  0999 V2000
    1.2497    0.8739   -0.0000 C   0  0  0  0  0  0  0  0  0  0  0  0
    1.2183    1.4728    0.7897 H   0  0  0  0  0  0  0  0  0  0  0  0
    1.2704    1.3980   -0.8409 H   0  0  0  0  0  0  0  0  0  0  0  0
    2.1532    0.2670    0.0569 H   0  0  0  0  0  0  0  0  0  0  0  0
    0.0000    0.0000    0.0000 C   0  0  0  0  0  0  0  0  0  0  0  0
    0.0106   -0.5817   -0.8161 H   0  0  0  0  0  0  0  0  0  0  0  0
    0.0107   -0.5817    0.8166 H   0  0  0  0  0  0  0  0  0  0  0  0
   -1.2497    0.8182    0.0000 N   0  0  0  0  0  4  0  0  0  0  0  0
   -1.3780    1.2226    0.9036 H   0  0  0  0  0  0  0  0  0  0  0  0
   -1.1699    1.5416   -0.6845 H   0  0  0  0  0  0  0  0  0  0  0  0
   -2.0273    0.2310   -0.2201 H   0  0  0  0  0  0  0  0  0  0  0  0
   -0.8525   -2.4042    3.9533 C   0  0  0  0  0  0  0  0  0  0  0  0
   -0.6496   -3.3309    3.5953 H   0  0  0  0  0  0  0  0  0  0  0  0
   -1.7758   -2.1483    3.6208 H   0  0  0  0  0  0  0  0  0  0  0  0
   -0.8623   -2.4380    5.0428 H   0  0  0  0  0  0  0  0  0  0  0  0
    0.3981   -1.2004    3.3283 S   0  0  0  0  0  0  0  0  0  0  0  0
    1.9174   -2.1005    3.5644 C   0  0  0  0  0  0  0  0  0  0  0  0
    2.4090   -2.1746    2.6933 H   0  0  0  0  0  0  0  0  0  0  0  0
    2.4975   -1.6220    4.2283 H   0  0  0  0  0  0  0  0  0  0  0  0
    1.7183   -3.0214    3.9073 H   0  0  0  0  0  0  0  0  0  0  0  0
  1  5  1  0
  5  8  1  0
  1  2  1  0
  1  3  1  0
  1  4  1  0
  5  6  1  0
  5  7  1  0
  8  9  1  0
  8 10  1  0
  8 11  1  0
 12 16  1  0
 16 17  1  0
 12 13  1  0
 12 14  1  0
 12 15  1  0
 17 18  1  0
 17 19  1  0
 17 20  1  0
M  CHG  1   8   1
M  END
>  <PDB_ID>  (155) 
pdb2ed6

>  <RESIDUE_NAME>  (155) 
LYS   MET

>  <FRAG_NAME>  (155) 
ETAM   MSM

>  <FRAG_ATOM_NUM>  (155) 
fragi: 11  fragj: 9

>  <atom.prop.CHAIN_ID>  (155) 
A A A A A A A A A A A Z Z Z Z Z Z Z Z Z

>  <atom.prop.IS_HEAVY_ATOM>  (155) 
1 0 0 0 1 0 0 1 0 0 0 1 0 0 0 1 1 0 0 0

>  <DIFUSE_FUNC_ATOM>  (155) 
n/a

>  <FINAL_SINGLE_POINT_ENERGY>  (155) 
0

>  <NONCOV_INTER_ENERGY_QM>  (155) 
0

>  <FF_Energy>  (155) 
-3.15

>  <QM_Energy>  (155) 
-9.09

>  <source>  (155) 
ETAM_MSM

>  <Index>  (155) 
936

$$$$
ETAM-pdb2ed6-K-LYS-123:MSM-pdb2ed6-K-MET-91
     RDKit          3D

 20 18  0  0  0  0  0  0  0  0999 V2000
    1.2429    0.8690    0.0000 C   0  0  0  0  0  0  0  0  0  0  0  0
    1.2658    1.3956   -0.8465 H   0  0  0  0  0  0  0  0  0  0  0  0
    2.0449    0.2801    0.0562 H   0  0  0  0  0  0  0  0  0  0  0  0
    1.2576    1.5609    0.8421 H   0  0  0  0  0  0  0  0  0  0  0  0
    0.0000    0.0000    0.0000 C   0  0  0  0  0  0  0  0  0  0  0  0
    0.0172   -0.5901   -0.8166 H   0  0  0  0  0  0  0  0  0  0  0  0
    0.0166   -0.5900    0.8162 H   0  0  0  0  0  0  0  0  0  0  0  0
   -1.2429    0.7990   -0.0000 N   0  0  0  0  0  4  0  0  0  0  0  0
   -1.4250    1.1387    0.9239 H   0  0  0  0  0  0  0  0  0  0  0  0
   -1.1437    1.5761   -0.6237 H   0  0  0  0  0  0  0  0  0  0  0  0
   -2.0096    0.2295   -0.3006 H   0  0  0  0  0  0  0  0  0  0  0  0
   -2.3418    3.8366   -2.5767 C   0  0  0  0  0  0  0  0  0  0  0  0
   -3.0108    4.1527   -1.8840 H   0  0  0  0  0  0  0  0  0  0  0  0
   -2.6696    2.9423   -2.9246 H   0  0  0  0  0  0  0  0  0  0  0  0
   -2.3192    4.5515   -3.3991 H   0  0  0  0  0  0  0  0  0  0  0  0
   -0.6894    3.6616   -1.8319 S   0  0  0  0  0  0  0  0  0  0  0  0
   -0.7117    4.9727   -0.6147 C   0  0  0  0  0  0  0  0  0  0  0  0
   -0.5847    5.8563   -1.0691 H   0  0  0  0  0  0  0  0  0  0  0  0
   -1.5903    4.9712   -0.1339 H   0  0  0  0  0  0  0  0  0  0  0  0
    0.0276    4.8318    0.0461 H   0  0  0  0  0  0  0  0  0  0  0  0
  1  5  1  0
  5  8  1  0
  1  2  1  0
  1  3  1  0
  1  4  1  0
  5  6  1  0
  5  7  1  0
  8  9  1  0
  8 10  1  0
  8 11  1  0
 12 16  1  0
 16 17  1  0
 12 13  1  0
 12 14  1  0
 12 15  1  0
 17 18  1  0
 17 19  1  0
 17 20  1  0
M  CHG  1   8   1
M  END
>  <PDB_ID>  (156) 
pdb2ed6

>  <RESIDUE_NAME>  (156) 
LYS   MET

>  <FRAG_NAME>  (156) 
ETAM   MSM

>  <FRAG_ATOM_NUM>  (156) 
fragi: 11  fragj: 9

>  <atom.prop.CHAIN_ID>  (156) 
A A A A A A A A A A A Z Z Z Z Z Z Z Z Z

>  <atom.prop.IS_HEAVY_ATOM>  (156) 
1 0 0 0 1 0 0 1 0 0 0 1 0 0 0 1 1 0 0 0

>  <DIFUSE_FUNC_ATOM>  (156) 
n/a

>  <FINAL_SINGLE_POINT_ENERGY>  (156) 
0

>  <NONCOV_INTER_ENERGY_QM>  (156) 
0

>  <FF_Energy>  (156) 
-5.44

>  <QM_Energy>  (156) 
-16.28

>  <source>  (156) 
ETAM_MSM

>  <Index>  (156) 
937

$$$$
ETAM-pdb2eb1-A-LYS-60:MSM-pdb2eb1-C-MET-167
     RDKit          3D

 20 18  0  0  0  0  0  0  0  0999 V2000
    1.1807    0.9967   -0.0000 C   0  0  0  0  0  0  0  0  0  0  0  0
    0.9334    1.7733   -0.5702 H   0  0  0  0  0  0  0  0  0  0  0  0
    1.9789    0.5339   -0.3711 H   0  0  0  0  0  0  0  0  0  0  0  0
    1.4207    1.3605    0.9991 H   0  0  0  0  0  0  0  0  0  0  0  0
    0.0000    0.0000    0.0000 C   0  0  0  0  0  0  0  0  0  0  0  0
    0.0674   -0.5428   -0.8160 H   0  0  0  0  0  0  0  0  0  0  0  0
    0.0676   -0.5433    0.8164 H   0  0  0  0  0  0  0  0  0  0  0  0
   -1.1807    0.8061   -0.0000 N   0  0  0  0  0  4  0  0  0  0  0  0
   -1.7638    0.5914   -0.7955 H   0  0  0  0  0  0  0  0  0  0  0  0
   -1.7244    0.6496    0.8356 H   0  0  0  0  0  0  0  0  0  0  0  0
   -0.9475    1.7877   -0.0403 H   0  0  0  0  0  0  0  0  0  0  0  0
   -4.5155    3.6051    0.3295 C   0  0  0  0  0  0  0  0  0  0  0  0
   -3.8769    4.3858    0.5226 H   0  0  0  0  0  0  0  0  0  0  0  0
   -5.4567    3.9739    0.5083 H   0  0  0  0  0  0  0  0  0  0  0  0
   -4.4606    3.4346   -0.7457 H   0  0  0  0  0  0  0  0  0  0  0  0
   -4.1511    2.1770    1.2429 S   0  0  0  0  0  0  0  0  0  0  0  0
   -4.9073    1.0015    0.3020 C   0  0  0  0  0  0  0  0  0  0  0  0
   -5.6107    0.4786    0.8241 H   0  0  0  0  0  0  0  0  0  0  0  0
   -5.3859    1.3991   -0.5070 H   0  0  0  0  0  0  0  0  0  0  0  0
   -4.2492    0.3132   -0.0630 H   0  0  0  0  0  0  0  0  0  0  0  0
  1  5  1  0
  5  8  1  0
  1  2  1  0
  1  3  1  0
  1  4  1  0
  5  6  1  0
  5  7  1  0
  8  9  1  0
  8 10  1  0
  8 11  1  0
 12 16  1  0
 16 17  1  0
 12 13  1  0
 12 14  1  0
 12 15  1  0
 17 18  1  0
 17 19  1  0
 17 20  1  0
M  CHG  1   8   1
M  END
>  <PDB_ID>  (157) 
pdb2eb1

>  <RESIDUE_NAME>  (157) 
LYS   MET

>  <FRAG_NAME>  (157) 
ETAM   MSM

>  <FRAG_ATOM_NUM>  (157) 
fragi: 11  fragj: 9

>  <atom.prop.CHAIN_ID>  (157) 
A A A A A A A A A A A Z Z Z Z Z Z Z Z Z

>  <atom.prop.IS_HEAVY_ATOM>  (157) 
1 0 0 0 1 0 0 1 0 0 0 1 0 0 0 1 1 0 0 0

>  <DIFUSE_FUNC_ATOM>  (157) 
n/a

>  <FINAL_SINGLE_POINT_ENERGY>  (157) 
0

>  <NONCOV_INTER_ENERGY_QM>  (157) 
0

>  <FF_Energy>  (157) 
-3.97

>  <QM_Energy>  (157) 
-10.47

>  <source>  (157) 
ETAM_MSM

>  <Index>  (157) 
940

$$$$
ETAM-pdb1dpt-C-LYS-109:MSM-pdb1dpt-C-MET-114
     RDKit          3D

 20 18  0  0  0  0  0  0  0  0999 V2000
    1.2342    0.8768    0.0000 C   0  0  0  0  0  0  0  0  0  0  0  0
    1.4570    1.1194    0.9430 H   0  0  0  0  0  0  0  0  0  0  0  0
    1.0418    1.7044   -0.5246 H   0  0  0  0  0  0  0  0  0  0  0  0
    2.0975    0.3795   -0.4420 H   0  0  0  0  0  0  0  0  0  0  0  0
    0.0000    0.0000    0.0000 C   0  0  0  0  0  0  0  0  0  0  0  0
    0.0007   -0.5715   -0.8161 H   0  0  0  0  0  0  0  0  0  0  0  0
    0.0006   -0.5714    0.8166 H   0  0  0  0  0  0  0  0  0  0  0  0
   -1.2342    0.8471   -0.0000 N   0  0  0  0  0  4  0  0  0  0  0  0
   -1.5948    0.9000   -0.9297 H   0  0  0  0  0  0  0  0  0  0  0  0
   -1.9139    0.4352    0.6041 H   0  0  0  0  0  0  0  0  0  0  0  0
   -1.0033    1.7621    0.3260 H   0  0  0  0  0  0  0  0  0  0  0  0
    0.2145   -1.0986    3.8772 C   0  0  0  0  0  0  0  0  0  0  0  0
    0.4947   -0.1711    3.5339 H   0  0  0  0  0  0  0  0  0  0  0  0
    0.8898   -1.7538    3.4628 H   0  0  0  0  0  0  0  0  0  0  0  0
    0.3265   -1.1188    4.9613 H   0  0  0  0  0  0  0  0  0  0  0  0
   -1.4550   -1.4915    3.3489 S   0  0  0  0  0  0  0  0  0  0  0  0
   -2.4240   -0.5091    4.5006 C   0  0  0  0  0  0  0  0  0  0  0  0
   -3.0574    0.0736    3.9907 H   0  0  0  0  0  0  0  0  0  0  0  0
   -2.9416   -1.1169    5.1027 H   0  0  0  0  0  0  0  0  0  0  0  0
   -1.8118    0.0621    5.0478 H   0  0  0  0  0  0  0  0  0  0  0  0
  1  5  1  0
  5  8  1  0
  1  2  1  0
  1  3  1  0
  1  4  1  0
  5  6  1  0
  5  7  1  0
  8  9  1  0
  8 10  1  0
  8 11  1  0
 12 16  1  0
 16 17  1  0
 12 13  1  0
 12 14  1  0
 12 15  1  0
 17 18  1  0
 17 19  1  0
 17 20  1  0
M  CHG  1   8   1
M  END
>  <PDB_ID>  (158) 
pdb1dpt

>  <RESIDUE_NAME>  (158) 
LYS   MET

>  <FRAG_NAME>  (158) 
ETAM   MSM

>  <FRAG_ATOM_NUM>  (158) 
fragi: 11  fragj: 9

>  <atom.prop.CHAIN_ID>  (158) 
A A A A A A A A A A A Z Z Z Z Z Z Z Z Z

>  <atom.prop.IS_HEAVY_ATOM>  (158) 
1 0 0 0 1 0 0 1 0 0 0 1 0 0 0 1 1 0 0 0

>  <DIFUSE_FUNC_ATOM>  (158) 
n/a

>  <FINAL_SINGLE_POINT_ENERGY>  (158) 
0

>  <NONCOV_INTER_ENERGY_QM>  (158) 
0

>  <FF_Energy>  (158) 
-3.78

>  <QM_Energy>  (158) 
-9.3

>  <source>  (158) 
ETAM_MSM

>  <Index>  (158) 
942

$$$$
ETAM-pdb1dqe-A-LYS-78:MSM-pdb1dqe-A-MET-74
     RDKit          3D

 20 18  0  0  0  0  0  0  0  0999 V2000
    1.2464    0.8729    0.0000 C   0  0  0  0  0  0  0  0  0  0  0  0
    1.2357    1.4388    0.8165 H   0  0  0  0  0  0  0  0  0  0  0  0
    1.2355    1.4379   -0.8167 H   0  0  0  0  0  0  0  0  0  0  0  0
    2.1508    0.2646    0.0008 H   0  0  0  0  0  0  0  0  0  0  0  0
    0.0000    0.0000    0.0000 C   0  0  0  0  0  0  0  0  0  0  0  0
    0.0126   -0.5831   -0.8160 H   0  0  0  0  0  0  0  0  0  0  0  0
    0.0122   -0.5834    0.8165 H   0  0  0  0  0  0  0  0  0  0  0  0
   -1.2464    0.8142    0.0000 N   0  0  0  0  0  4  0  0  0  0  0  0
   -1.0417    1.7325   -0.3361 H   0  0  0  0  0  0  0  0  0  0  0  0
   -1.9243    0.3828   -0.5947 H   0  0  0  0  0  0  0  0  0  0  0  0
   -1.6060    0.8699    0.9308 H   0  0  0  0  0  0  0  0  0  0  0  0
    0.2559    0.6729    4.0744 C   0  0  0  0  0  0  0  0  0  0  0  0
   -0.6005    1.1989    4.2218 H   0  0  0  0  0  0  0  0  0  0  0  0
    0.8615    1.2477    3.4959 H   0  0  0  0  0  0  0  0  0  0  0  0
    0.7388    0.5042    5.0369 H   0  0  0  0  0  0  0  0  0  0  0  0
   -0.0988   -0.9022    3.2538 S   0  0  0  0  0  0  0  0  0  0  0  0
   -0.2758   -1.9828    4.7408 C   0  0  0  0  0  0  0  0  0  0  0  0
   -0.4567   -1.4015    5.5247 H   0  0  0  0  0  0  0  0  0  0  0  0
   -1.0327   -2.6049    4.5812 H   0  0  0  0  0  0  0  0  0  0  0  0
    0.5731   -2.4828    4.8608 H   0  0  0  0  0  0  0  0  0  0  0  0
  1  5  1  0
  5  8  1  0
  1  2  1  0
  1  3  1  0
  1  4  1  0
  5  6  1  0
  5  7  1  0
  8  9  1  0
  8 10  1  0
  8 11  1  0
 12 16  1  0
 16 17  1  0
 12 13  1  0
 12 14  1  0
 12 15  1  0
 17 18  1  0
 17 19  1  0
 17 20  1  0
M  CHG  1   8   1
M  END
>  <PDB_ID>  (159) 
pdb1dqe

>  <RESIDUE_NAME>  (159) 
LYS   MET

>  <FRAG_NAME>  (159) 
ETAM   MSM

>  <FRAG_ATOM_NUM>  (159) 
fragi: 11  fragj: 9

>  <atom.prop.CHAIN_ID>  (159) 
A A A A A A A A A A A Z Z Z Z Z Z Z Z Z

>  <atom.prop.IS_HEAVY_ATOM>  (159) 
1 0 0 0 1 0 0 1 0 0 0 1 0 0 0 1 1 0 0 0

>  <DIFUSE_FUNC_ATOM>  (159) 
n/a

>  <FINAL_SINGLE_POINT_ENERGY>  (159) 
0

>  <NONCOV_INTER_ENERGY_QM>  (159) 
0

>  <FF_Energy>  (159) 
-1.37

>  <QM_Energy>  (159) 
-9.43

>  <source>  (159) 
ETAM_MSM

>  <Index>  (159) 
945

$$$$
ETAM-pdb2e8y-B-LYS-351:MSM-pdb2e8y-B-MET-175
     RDKit          3D

 20 18  0  0  0  0  0  0  0  0999 V2000
    1.2395    0.8740    0.0000 C   0  0  0  0  0  0  0  0  0  0  0  0
    2.0364    0.2960   -0.1180 H   0  0  0  0  0  0  0  0  0  0  0  0
    1.2833    1.3648    0.8601 H   0  0  0  0  0  0  0  0  0  0  0  0
    1.2001    1.5944   -0.8171 H   0  0  0  0  0  0  0  0  0  0  0  0
    0.0000    0.0000    0.0000 C   0  0  0  0  0  0  0  0  0  0  0  0
    0.0051   -0.5763   -0.8158 H   0  0  0  0  0  0  0  0  0  0  0  0
    0.0048   -0.5764    0.8162 H   0  0  0  0  0  0  0  0  0  0  0  0
   -1.2395    0.8345   -0.0000 N   0  0  0  0  0  4  0  0  0  0  0  0
   -1.0017    1.7762   -0.2333 H   0  0  0  0  0  0  0  0  0  0  0  0
   -1.8796    0.4723   -0.6747 H   0  0  0  0  0  0  0  0  0  0  0  0
   -1.6551    0.8060    0.9080 H   0  0  0  0  0  0  0  0  0  0  0  0
   -1.0282    4.6631    1.9365 C   0  0  0  0  0  0  0  0  0  0  0  0
   -1.4743    3.8544    2.3949 H   0  0  0  0  0  0  0  0  0  0  0  0
   -1.4703    5.4865    2.3723 H   0  0  0  0  0  0  0  0  0  0  0  0
    0.0273    4.6635    2.2087 H   0  0  0  0  0  0  0  0  0  0  0  0
   -1.3157    4.6394    0.1692 S   0  0  0  0  0  0  0  0  0  0  0  0
   -2.8354    5.6256    0.0638 C   0  0  0  0  0  0  0  0  0  0  0  0
   -3.5684    5.0543   -0.2986 H   0  0  0  0  0  0  0  0  0  0  0  0
   -3.0756    5.9497    0.9759 H   0  0  0  0  0  0  0  0  0  0  0  0
   -2.6771    6.4010   -0.5427 H   0  0  0  0  0  0  0  0  0  0  0  0
  1  5  1  0
  5  8  1  0
  1  2  1  0
  1  3  1  0
  1  4  1  0
  5  6  1  0
  5  7  1  0
  8  9  1  0
  8 10  1  0
  8 11  1  0
 12 16  1  0
 16 17  1  0
 12 13  1  0
 12 14  1  0
 12 15  1  0
 17 18  1  0
 17 19  1  0
 17 20  1  0
M  CHG  1   8   1
M  END
>  <PDB_ID>  (160) 
pdb2e8y

>  <RESIDUE_NAME>  (160) 
LYS   MET

>  <FRAG_NAME>  (160) 
ETAM   MSM

>  <FRAG_ATOM_NUM>  (160) 
fragi: 11  fragj: 9

>  <atom.prop.CHAIN_ID>  (160) 
A A A A A A A A A A A Z Z Z Z Z Z Z Z Z

>  <atom.prop.IS_HEAVY_ATOM>  (160) 
1 0 0 0 1 0 0 1 0 0 0 1 0 0 0 1 1 0 0 0

>  <DIFUSE_FUNC_ATOM>  (160) 
n/a

>  <FINAL_SINGLE_POINT_ENERGY>  (160) 
0

>  <NONCOV_INTER_ENERGY_QM>  (160) 
0

>  <FF_Energy>  (160) 
-4.46

>  <QM_Energy>  (160) 
-11.57

>  <source>  (160) 
ETAM_MSM

>  <Index>  (160) 
946

$$$$
ETAM-pdb2egu-A-LYS-286:MSM-pdb2egu-A-MET-166
     RDKit          3D

 20 18  0  0  0  0  0  0  0  0999 V2000
    1.2459    0.8694   -0.0000 C   0  0  0  0  0  0  0  0  0  0  0  0
    1.2486    1.4218    0.8318 H   0  0  0  0  0  0  0  0  0  0  0  0
    1.2184    1.4654   -0.8010 H   0  0  0  0  0  0  0  0  0  0  0  0
    2.1636    0.2821   -0.0316 H   0  0  0  0  0  0  0  0  0  0  0  0
    0.0000    0.0000    0.0000 C   0  0  0  0  0  0  0  0  0  0  0  0
    0.0060   -0.5808   -0.8162 H   0  0  0  0  0  0  0  0  0  0  0  0
    0.0059   -0.5806    0.8162 H   0  0  0  0  0  0  0  0  0  0  0  0
   -1.2459    0.8265    0.0000 N   0  0  0  0  0  4  0  0  0  0  0  0
   -2.0410    0.2217    0.0119 H   0  0  0  0  0  0  0  0  0  0  0  0
   -1.2534    1.4092    0.8110 H   0  0  0  0  0  0  0  0  0  0  0  0
   -1.2641    1.3921   -0.8219 H   0  0  0  0  0  0  0  0  0  0  0  0
   -3.2296   -2.6718   -2.7451 C   0  0  0  0  0  0  0  0  0  0  0  0
   -4.0632   -3.2634   -2.7109 H   0  0  0  0  0  0  0  0  0  0  0  0
   -2.7437   -2.9227   -3.6099 H   0  0  0  0  0  0  0  0  0  0  0  0
   -3.5443   -1.6304   -2.8114 H   0  0  0  0  0  0  0  0  0  0  0  0
   -2.1707   -2.9813   -1.3079 S   0  0  0  0  0  0  0  0  0  0  0  0
   -3.3613   -3.5550   -0.1138 C   0  0  0  0  0  0  0  0  0  0  0  0
   -4.2740   -3.5813   -0.5281 H   0  0  0  0  0  0  0  0  0  0  0  0
   -3.1157   -4.4756    0.1971 H   0  0  0  0  0  0  0  0  0  0  0  0
   -3.3776   -2.9360    0.6754 H   0  0  0  0  0  0  0  0  0  0  0  0
  1  5  1  0
  5  8  1  0
  1  2  1  0
  1  3  1  0
  1  4  1  0
  5  6  1  0
  5  7  1  0
  8  9  1  0
  8 10  1  0
  8 11  1  0
 12 16  1  0
 16 17  1  0
 12 13  1  0
 12 14  1  0
 12 15  1  0
 17 18  1  0
 17 19  1  0
 17 20  1  0
M  CHG  1   8   1
M  END
>  <PDB_ID>  (161) 
pdb2egu

>  <RESIDUE_NAME>  (161) 
LYS   MET

>  <FRAG_NAME>  (161) 
ETAM   MSM

>  <FRAG_ATOM_NUM>  (161) 
fragi: 11  fragj: 9

>  <atom.prop.CHAIN_ID>  (161) 
A A A A A A A A A A A Z Z Z Z Z Z Z Z Z

>  <atom.prop.IS_HEAVY_ATOM>  (161) 
1 0 0 0 1 0 0 1 0 0 0 1 0 0 0 1 1 0 0 0

>  <DIFUSE_FUNC_ATOM>  (161) 
n/a

>  <FINAL_SINGLE_POINT_ENERGY>  (161) 
0

>  <NONCOV_INTER_ENERGY_QM>  (161) 
0

>  <FF_Energy>  (161) 
-3.79

>  <QM_Energy>  (161) 
-9.15

>  <source>  (161) 
ETAM_MSM

>  <Index>  (161) 
947

$$$$
ETAM-pdb2egi-F-LYS-111:MSM-pdb2egi-F-MET-50
     RDKit          3D

 20 18  0  0  0  0  0  0  0  0999 V2000
    1.2283    0.8858   -0.0000 C   0  0  0  0  0  0  0  0  0  0  0  0
    2.0364    0.3130   -0.0653 H   0  0  0  0  0  0  0  0  0  0  0  0
    1.2405    1.4159    0.8391 H   0  0  0  0  0  0  0  0  0  0  0  0
    1.2137    1.5696   -0.8487 H   0  0  0  0  0  0  0  0  0  0  0  0
    0.0000    0.0000    0.0000 C   0  0  0  0  0  0  0  0  0  0  0  0
    0.0053   -0.5690   -0.8156 H   0  0  0  0  0  0  0  0  0  0  0  0
    0.0049   -0.5692    0.8164 H   0  0  0  0  0  0  0  0  0  0  0  0
   -1.2283    0.8447   -0.0000 N   0  0  0  0  0  4  0  0  0  0  0  0
   -1.1521    1.5387    0.7153 H   0  0  0  0  0  0  0  0  0  0  0  0
   -1.3239    1.2889   -0.8904 H   0  0  0  0  0  0  0  0  0  0  0  0
   -2.0253    0.2681    0.1753 H   0  0  0  0  0  0  0  0  0  0  0  0
   -5.9405   -0.6284   -1.0173 C   0  0  0  0  0  0  0  0  0  0  0  0
   -6.7060   -0.3118   -0.4557 H   0  0  0  0  0  0  0  0  0  0  0  0
   -5.8995   -1.6269   -0.9934 H   0  0  0  0  0  0  0  0  0  0  0  0
   -6.0606   -0.2816   -2.0436 H   0  0  0  0  0  0  0  0  0  0  0  0
   -4.3739    0.0753   -0.3866 S   0  0  0  0  0  0  0  0  0  0  0  0
   -3.2183   -0.6395   -1.5607 C   0  0  0  0  0  0  0  0  0  0  0  0
   -2.4011   -0.9531   -1.0769 H   0  0  0  0  0  0  0  0  0  0  0  0
   -3.6499   -1.4146   -2.0232 H   0  0  0  0  0  0  0  0  0  0  0  0
   -2.9607    0.0514   -2.2377 H   0  0  0  0  0  0  0  0  0  0  0  0
  1  5  1  0
  5  8  1  0
  1  2  1  0
  1  3  1  0
  1  4  1  0
  5  6  1  0
  5  7  1  0
  8  9  1  0
  8 10  1  0
  8 11  1  0
 12 16  1  0
 16 17  1  0
 12 13  1  0
 12 14  1  0
 12 15  1  0
 17 18  1  0
 17 19  1  0
 17 20  1  0
M  CHG  1   8   1
M  END
>  <PDB_ID>  (162) 
pdb2egi

>  <RESIDUE_NAME>  (162) 
LYS   MET

>  <FRAG_NAME>  (162) 
ETAM   MSM

>  <FRAG_ATOM_NUM>  (162) 
fragi: 11  fragj: 9

>  <atom.prop.CHAIN_ID>  (162) 
A A A A A A A A A A A Z Z Z Z Z Z Z Z Z

>  <atom.prop.IS_HEAVY_ATOM>  (162) 
1 0 0 0 1 0 0 1 0 0 0 1 0 0 0 1 1 0 0 0

>  <DIFUSE_FUNC_ATOM>  (162) 
n/a

>  <FINAL_SINGLE_POINT_ENERGY>  (162) 
0

>  <NONCOV_INTER_ENERGY_QM>  (162) 
0

>  <FF_Energy>  (162) 
0.52

>  <QM_Energy>  (162) 
-5.22

>  <source>  (162) 
ETAM_MSM

>  <Index>  (162) 
950

$$$$
ETAM-pdb2ed6-E-LYS-123:MSM-pdb2ed6-E-MET-91
     RDKit          3D

 20 18  0  0  0  0  0  0  0  0999 V2000
    1.2459    0.8718    0.0000 C   0  0  0  0  0  0  0  0  0  0  0  0
    1.2391    1.4380   -0.8229 H   0  0  0  0  0  0  0  0  0  0  0  0
    2.0500    0.2794   -0.0047 H   0  0  0  0  0  0  0  0  0  0  0  0
    1.3005    1.5256    0.8705 H   0  0  0  0  0  0  0  0  0  0  0  0
    0.0000    0.0000    0.0000 C   0  0  0  0  0  0  0  0  0  0  0  0
    0.0174   -0.5879   -0.8161 H   0  0  0  0  0  0  0  0  0  0  0  0
    0.0166   -0.5887    0.8163 H   0  0  0  0  0  0  0  0  0  0  0  0
   -1.2459    0.8004    0.0000 N   0  0  0  0  0  4  0  0  0  0  0  0
   -1.9536    0.3187   -0.5190 H   0  0  0  0  0  0  0  0  0  0  0  0
   -1.5584    0.9348    0.9415 H   0  0  0  0  0  0  0  0  0  0  0  0
   -1.0721    1.6908   -0.4221 H   0  0  0  0  0  0  0  0  0  0  0  0
   -3.3823    3.4624   -1.3653 C   0  0  0  0  0  0  0  0  0  0  0  0
   -3.8617    3.6268   -0.4831 H   0  0  0  0  0  0  0  0  0  0  0  0
   -3.7099    2.5643   -1.7131 H   0  0  0  0  0  0  0  0  0  0  0  0
   -3.6744    4.2399   -2.0713 H   0  0  0  0  0  0  0  0  0  0  0  0
   -1.5850    3.4349   -1.1213 S   0  0  0  0  0  0  0  0  0  0  0  0
   -1.4140    4.7680    0.1490 C   0  0  0  0  0  0  0  0  0  0  0  0
   -0.8805    5.5041   -0.2482 H   0  0  0  0  0  0  0  0  0  0  0  0
   -2.3236    5.0807    0.3897 H   0  0  0  0  0  0  0  0  0  0  0  0
   -0.9523    4.3826    0.9380 H   0  0  0  0  0  0  0  0  0  0  0  0
  1  5  1  0
  5  8  1  0
  1  2  1  0
  1  3  1  0
  1  4  1  0
  5  6  1  0
  5  7  1  0
  8  9  1  0
  8 10  1  0
  8 11  1  0
 12 16  1  0
 16 17  1  0
 12 13  1  0
 12 14  1  0
 12 15  1  0
 17 18  1  0
 17 19  1  0
 17 20  1  0
M  CHG  1   8   1
M  END
>  <PDB_ID>  (163) 
pdb2ed6

>  <RESIDUE_NAME>  (163) 
LYS   MET

>  <FRAG_NAME>  (163) 
ETAM   MSM

>  <FRAG_ATOM_NUM>  (163) 
fragi: 11  fragj: 9

>  <atom.prop.CHAIN_ID>  (163) 
A A A A A A A A A A A Z Z Z Z Z Z Z Z Z

>  <atom.prop.IS_HEAVY_ATOM>  (163) 
1 0 0 0 1 0 0 1 0 0 0 1 0 0 0 1 1 0 0 0

>  <DIFUSE_FUNC_ATOM>  (163) 
n/a

>  <FINAL_SINGLE_POINT_ENERGY>  (163) 
0

>  <NONCOV_INTER_ENERGY_QM>  (163) 
0

>  <FF_Energy>  (163) 
-0.93

>  <QM_Energy>  (163) 
-11.91

>  <source>  (163) 
ETAM_MSM

>  <Index>  (163) 
956

$$$$
ETAM-pdb1dq8-B-LYS-735:MSM-pdb1dq8-B-MET-854
     RDKit          3D

 20 18  0  0  0  0  0  0  0  0999 V2000
    1.2648    0.8397    0.0000 C   0  0  0  0  0  0  0  0  0  0  0  0
    1.2679    1.4132   -0.8196 H   0  0  0  0  0  0  0  0  0  0  0  0
    2.0545    0.2270   -0.0182 H   0  0  0  0  0  0  0  0  0  0  0  0
    1.3437    1.4844    0.8754 H   0  0  0  0  0  0  0  0  0  0  0  0
    0.0000    0.0000    0.0000 C   0  0  0  0  0  0  0  0  0  0  0  0
    0.0093   -0.6030   -0.8159 H   0  0  0  0  0  0  0  0  0  0  0  0
    0.0083   -0.6033    0.8164 H   0  0  0  0  0  0  0  0  0  0  0  0
   -1.2648    0.7889   -0.0000 N   0  0  0  0  0  4  0  0  0  0  0  0
   -2.0257    0.1931   -0.2520 H   0  0  0  0  0  0  0  0  0  0  0  0
   -1.4202    1.1642    0.9134 H   0  0  0  0  0  0  0  0  0  0  0  0
   -1.1892    1.5348   -0.6604 H   0  0  0  0  0  0  0  0  0  0  0  0
    4.0079   -3.3932   -2.3799 C   0  0  0  0  0  0  0  0  0  0  0  0
    3.2412   -4.0603   -2.4900 H   0  0  0  0  0  0  0  0  0  0  0  0
    4.7463   -3.8942   -1.8796 H   0  0  0  0  0  0  0  0  0  0  0  0
    4.3834   -3.1506   -3.3739 H   0  0  0  0  0  0  0  0  0  0  0  0
    3.4707   -1.9329   -1.4540 S   0  0  0  0  0  0  0  0  0  0  0  0
    2.0126   -1.6883   -2.1472 C   0  0  0  0  0  0  0  0  0  0  0  0
    1.2415   -1.6001   -1.4701 H   0  0  0  0  0  0  0  0  0  0  0  0
    1.9635   -0.8323   -2.7184 H   0  0  0  0  0  0  0  0  0  0  0  0
    1.7225   -2.4462   -2.7813 H   0  0  0  0  0  0  0  0  0  0  0  0
  1  5  1  0
  5  8  1  0
  1  2  1  0
  1  3  1  0
  1  4  1  0
  5  6  1  0
  5  7  1  0
  8  9  1  0
  8 10  1  0
  8 11  1  0
 12 16  1  0
 16 17  1  0
 12 13  1  0
 12 14  1  0
 12 15  1  0
 17 18  1  0
 17 19  1  0
 17 20  1  0
M  CHG  1   8   1
M  END
>  <PDB_ID>  (164) 
pdb1dq8

>  <RESIDUE_NAME>  (164) 
LYS   MET

>  <FRAG_NAME>  (164) 
ETAM   MSM

>  <FRAG_ATOM_NUM>  (164) 
fragi: 11  fragj: 9

>  <atom.prop.CHAIN_ID>  (164) 
A A A A A A A A A A A Z Z Z Z Z Z Z Z Z

>  <atom.prop.IS_HEAVY_ATOM>  (164) 
1 0 0 0 1 0 0 1 0 0 0 1 0 0 0 1 1 0 0 0

>  <DIFUSE_FUNC_ATOM>  (164) 
n/a

>  <FINAL_SINGLE_POINT_ENERGY>  (164) 
0

>  <NONCOV_INTER_ENERGY_QM>  (164) 
0

>  <FF_Energy>  (164) 
6.2

>  <QM_Energy>  (164) 
-0.41

>  <source>  (164) 
ETAM_MSM

>  <Index>  (164) 
957

$$$$
ETAM-pdb2ed6-F-LYS-123:MSM-pdb2ed6-F-MET-91
     RDKit          3D

 20 18  0  0  0  0  0  0  0  0999 V2000
    1.2523    0.8612   -0.0000 C   0  0  0  0  0  0  0  0  0  0  0  0
    1.2449    1.4365   -0.8159 H   0  0  0  0  0  0  0  0  0  0  0  0
    2.0516    0.2634   -0.0163 H   0  0  0  0  0  0  0  0  0  0  0  0
    1.3178    1.5049    0.8772 H   0  0  0  0  0  0  0  0  0  0  0  0
    0.0000    0.0000    0.0000 C   0  0  0  0  0  0  0  0  0  0  0  0
    0.0111   -0.5908   -0.8163 H   0  0  0  0  0  0  0  0  0  0  0  0
    0.0107   -0.5912    0.8161 H   0  0  0  0  0  0  0  0  0  0  0  0
   -1.2523    0.8048    0.0000 N   0  0  0  0  0  4  0  0  0  0  0  0
   -1.0223    1.7757    0.0530 H   0  0  0  0  0  0  0  0  0  0  0  0
   -1.7611    0.6262   -0.8419 H   0  0  0  0  0  0  0  0  0  0  0  0
   -1.8109    0.5494    0.7886 H   0  0  0  0  0  0  0  0  0  0  0  0
   -3.3102    3.4888   -1.2442 C   0  0  0  0  0  0  0  0  0  0  0  0
   -3.7722    3.6062   -0.3534 H   0  0  0  0  0  0  0  0  0  0  0  0
   -3.5714    2.5836   -1.6102 H   0  0  0  0  0  0  0  0  0  0  0  0
   -3.6460    4.2667   -1.9300 H   0  0  0  0  0  0  0  0  0  0  0  0
   -1.4543    3.5459   -0.9937 S   0  0  0  0  0  0  0  0  0  0  0  0
   -1.3654    4.8051    0.2656 C   0  0  0  0  0  0  0  0  0  0  0  0
   -1.5415    5.7049   -0.1408 H   0  0  0  0  0  0  0  0  0  0  0  0
   -2.0508    4.6252    0.9751 H   0  0  0  0  0  0  0  0  0  0  0  0
   -0.4537    4.8054    0.6824 H   0  0  0  0  0  0  0  0  0  0  0  0
  1  5  1  0
  5  8  1  0
  1  2  1  0
  1  3  1  0
  1  4  1  0
  5  6  1  0
  5  7  1  0
  8  9  1  0
  8 10  1  0
  8 11  1  0
 12 16  1  0
 16 17  1  0
 12 13  1  0
 12 14  1  0
 12 15  1  0
 17 18  1  0
 17 19  1  0
 17 20  1  0
M  CHG  1   8   1
M  END
>  <PDB_ID>  (165) 
pdb2ed6

>  <RESIDUE_NAME>  (165) 
LYS   MET

>  <FRAG_NAME>  (165) 
ETAM   MSM

>  <FRAG_ATOM_NUM>  (165) 
fragi: 11  fragj: 9

>  <atom.prop.CHAIN_ID>  (165) 
A A A A A A A A A A A Z Z Z Z Z Z Z Z Z

>  <atom.prop.IS_HEAVY_ATOM>  (165) 
1 0 0 0 1 0 0 1 0 0 0 1 0 0 0 1 1 0 0 0

>  <DIFUSE_FUNC_ATOM>  (165) 
n/a

>  <FINAL_SINGLE_POINT_ENERGY>  (165) 
0

>  <NONCOV_INTER_ENERGY_QM>  (165) 
0

>  <FF_Energy>  (165) 
-1.91

>  <QM_Energy>  (165) 
-12.21

>  <source>  (165) 
ETAM_MSM

>  <Index>  (165) 
962

$$$$
ETAM-pdb1dpm-B-LYS-82:MSM-pdb1dpm-B-MET-314
     RDKit          3D

 20 18  0  0  0  0  0  0  0  0999 V2000
    1.2347    0.8756    0.0000 C   0  0  0  0  0  0  0  0  0  0  0  0
    1.4724    1.0867    0.9511 H   0  0  0  0  0  0  0  0  0  0  0  0
    1.0168    1.7288   -0.4800 H   0  0  0  0  0  0  0  0  0  0  0  0
    2.0885    0.4012   -0.4839 H   0  0  0  0  0  0  0  0  0  0  0  0
    0.0000    0.0000    0.0000 C   0  0  0  0  0  0  0  0  0  0  0  0
    0.0242   -0.5904   -0.8161 H   0  0  0  0  0  0  0  0  0  0  0  0
    0.0230   -0.5905    0.8162 H   0  0  0  0  0  0  0  0  0  0  0  0
   -1.2347    0.7894    0.0000 N   0  0  0  0  0  4  0  0  0  0  0  0
   -1.5524    0.9295    0.9417 H   0  0  0  0  0  0  0  0  0  0  0  0
   -1.0706    1.6835   -0.4252 H   0  0  0  0  0  0  0  0  0  0  0  0
   -1.9486    0.3088   -0.5162 H   0  0  0  0  0  0  0  0  0  0  0  0
   -5.3441    2.3156   -0.9351 C   0  0  0  0  0  0  0  0  0  0  0  0
   -6.3103    2.4390   -1.2731 H   0  0  0  0  0  0  0  0  0  0  0  0
   -4.8979    3.2338   -1.0760 H   0  0  0  0  0  0  0  0  0  0  0  0
   -5.3858    2.1228    0.1369 H   0  0  0  0  0  0  0  0  0  0  0  0
   -4.4929    1.0366   -1.8753 S   0  0  0  0  0  0  0  0  0  0  0  0
   -5.7595   -0.2599   -1.9100 C   0  0  0  0  0  0  0  0  0  0  0  0
   -5.3406   -1.1298   -1.6594 H   0  0  0  0  0  0  0  0  0  0  0  0
   -6.4789   -0.0293   -1.2588 H   0  0  0  0  0  0  0  0  0  0  0  0
   -6.1394   -0.3181   -2.8306 H   0  0  0  0  0  0  0  0  0  0  0  0
  1  5  1  0
  5  8  1  0
  1  2  1  0
  1  3  1  0
  1  4  1  0
  5  6  1  0
  5  7  1  0
  8  9  1  0
  8 10  1  0
  8 11  1  0
 12 16  1  0
 16 17  1  0
 12 13  1  0
 12 14  1  0
 12 15  1  0
 17 18  1  0
 17 19  1  0
 17 20  1  0
M  CHG  1   8   1
M  END
>  <PDB_ID>  (166) 
pdb1dpm

>  <RESIDUE_NAME>  (166) 
LYS   MET

>  <FRAG_NAME>  (166) 
ETAM   MSM

>  <FRAG_ATOM_NUM>  (166) 
fragi: 11  fragj: 9

>  <atom.prop.CHAIN_ID>  (166) 
A A A A A A A A A A A Z Z Z Z Z Z Z Z Z

>  <atom.prop.IS_HEAVY_ATOM>  (166) 
1 0 0 0 1 0 0 1 0 0 0 1 0 0 0 1 1 0 0 0

>  <DIFUSE_FUNC_ATOM>  (166) 
n/a

>  <FINAL_SINGLE_POINT_ENERGY>  (166) 
0

>  <NONCOV_INTER_ENERGY_QM>  (166) 
0

>  <FF_Energy>  (166) 
-4.42

>  <QM_Energy>  (166) 
-12.06

>  <source>  (166) 
ETAM_MSM

>  <Index>  (166) 
964

$$$$
ETAM-pdb1dty-B-LYS-121:MSM-pdb1dty-A-MET-152
     RDKit          3D

 20 18  0  0  0  0  0  0  0  0999 V2000
    1.2431    0.8777    0.0000 C   0  0  0  0  0  0  0  0  0  0  0  0
    1.1919    1.4955    0.7798 H   0  0  0  0  0  0  0  0  0  0  0  0
    1.2603    1.3985   -0.8491 H   0  0  0  0  0  0  0  0  0  0  0  0
    2.1552    0.2855    0.0740 H   0  0  0  0  0  0  0  0  0  0  0  0
    0.0000    0.0000    0.0000 C   0  0  0  0  0  0  0  0  0  0  0  0
    0.0119   -0.5796   -0.8155 H   0  0  0  0  0  0  0  0  0  0  0  0
    0.0121   -0.5798    0.8163 H   0  0  0  0  0  0  0  0  0  0  0  0
   -1.2431    0.8203    0.0000 N   0  0  0  0  0  4  0  0  0  0  0  0
   -1.0770    1.6727    0.4946 H   0  0  0  0  0  0  0  0  0  0  0  0
   -1.5039    1.0254   -0.9424 H   0  0  0  0  0  0  0  0  0  0  0  0
   -1.9768    0.3101    0.4475 H   0  0  0  0  0  0  0  0  0  0  0  0
   -1.7476    3.0524    3.5656 C   0  0  0  0  0  0  0  0  0  0  0  0
   -2.7023    2.8169    3.3137 H   0  0  0  0  0  0  0  0  0  0  0  0
   -1.5300    3.9341    3.1126 H   0  0  0  0  0  0  0  0  0  0  0  0
   -1.6899    3.1851    4.6459 H   0  0  0  0  0  0  0  0  0  0  0  0
   -0.6048    1.7555    3.0176 S   0  0  0  0  0  0  0  0  0  0  0  0
   -1.2871    0.3860    3.9505 C   0  0  0  0  0  0  0  0  0  0  0  0
   -1.1255   -0.4694    3.4571 H   0  0  0  0  0  0  0  0  0  0  0  0
   -0.8461    0.3393    4.8484 H   0  0  0  0  0  0  0  0  0  0  0  0
   -2.2715    0.5199    4.0701 H   0  0  0  0  0  0  0  0  0  0  0  0
  1  5  1  0
  5  8  1  0
  1  2  1  0
  1  3  1  0
  1  4  1  0
  5  6  1  0
  5  7  1  0
  8  9  1  0
  8 10  1  0
  8 11  1  0
 12 16  1  0
 16 17  1  0
 12 13  1  0
 12 14  1  0
 12 15  1  0
 17 18  1  0
 17 19  1  0
 17 20  1  0
M  CHG  1   8   1
M  END
>  <PDB_ID>  (167) 
pdb1dty

>  <RESIDUE_NAME>  (167) 
LYS   MET

>  <FRAG_NAME>  (167) 
ETAM   MSM

>  <FRAG_ATOM_NUM>  (167) 
fragi: 11  fragj: 9

>  <atom.prop.CHAIN_ID>  (167) 
A A A A A A A A A A A Z Z Z Z Z Z Z Z Z

>  <atom.prop.IS_HEAVY_ATOM>  (167) 
1 0 0 0 1 0 0 1 0 0 0 1 0 0 0 1 1 0 0 0

>  <DIFUSE_FUNC_ATOM>  (167) 
n/a

>  <FINAL_SINGLE_POINT_ENERGY>  (167) 
0

>  <NONCOV_INTER_ENERGY_QM>  (167) 
0

>  <FF_Energy>  (167) 
-4.78

>  <QM_Energy>  (167) 
-14.12

>  <source>  (167) 
ETAM_MSM

>  <Index>  (167) 
965

$$$$
ETAM-pdb2eky-A-LYS-93:MSM-pdb2eky-B-MET-45
     RDKit          3D

 20 18  0  0  0  0  0  0  0  0999 V2000
    1.2564    0.8713    0.0000 C   0  0  0  0  0  0  0  0  0  0  0  0
    1.2141    1.4863    0.7759 H   0  0  0  0  0  0  0  0  0  0  0  0
    1.2917    1.3745   -0.8521 H   0  0  0  0  0  0  0  0  0  0  0  0
    2.1552    0.2604    0.0850 H   0  0  0  0  0  0  0  0  0  0  0  0
    0.0000    0.0000    0.0000 C   0  0  0  0  0  0  0  0  0  0  0  0
    0.0139   -0.5858   -0.8157 H   0  0  0  0  0  0  0  0  0  0  0  0
    0.0129   -0.5859    0.8159 H   0  0  0  0  0  0  0  0  0  0  0  0
   -1.2564    0.8087    0.0000 N   0  0  0  0  0  4  0  0  0  0  0  0
   -1.2648    1.4025   -0.8028 H   0  0  0  0  0  0  0  0  0  0  0  0
   -2.0432    0.1941   -0.0277 H   0  0  0  0  0  0  0  0  0  0  0  0
   -1.2904    1.3628    0.8308 H   0  0  0  0  0  0  0  0  0  0  0  0
   -2.4206    4.1572   -3.1400 C   0  0  0  0  0  0  0  0  0  0  0  0
   -1.4892    3.9624   -3.5146 H   0  0  0  0  0  0  0  0  0  0  0  0
   -2.5867    5.1527   -3.3083 H   0  0  0  0  0  0  0  0  0  0  0  0
   -3.1495    3.5826   -3.7116 H   0  0  0  0  0  0  0  0  0  0  0  0
   -2.4850    3.7901   -1.3663 S   0  0  0  0  0  0  0  0  0  0  0  0
   -4.0110    4.6334   -0.9010 C   0  0  0  0  0  0  0  0  0  0  0  0
   -4.6906    3.9552   -0.6250 H   0  0  0  0  0  0  0  0  0  0  0  0
   -3.8260    5.2535   -0.1400 H   0  0  0  0  0  0  0  0  0  0  0  0
   -4.3514    5.1526   -1.6831 H   0  0  0  0  0  0  0  0  0  0  0  0
  1  5  1  0
  5  8  1  0
  1  2  1  0
  1  3  1  0
  1  4  1  0
  5  6  1  0
  5  7  1  0
  8  9  1  0
  8 10  1  0
  8 11  1  0
 12 16  1  0
 16 17  1  0
 12 13  1  0
 12 14  1  0
 12 15  1  0
 17 18  1  0
 17 19  1  0
 17 20  1  0
M  CHG  1   8   1
M  END
>  <PDB_ID>  (168) 
pdb2eky

>  <RESIDUE_NAME>  (168) 
LYS   MET

>  <FRAG_NAME>  (168) 
ETAM   MSM

>  <FRAG_ATOM_NUM>  (168) 
fragi: 11  fragj: 9

>  <atom.prop.CHAIN_ID>  (168) 
A A A A A A A A A A A Z Z Z Z Z Z Z Z Z

>  <atom.prop.IS_HEAVY_ATOM>  (168) 
1 0 0 0 1 0 0 1 0 0 0 1 0 0 0 1 1 0 0 0

>  <DIFUSE_FUNC_ATOM>  (168) 
n/a

>  <FINAL_SINGLE_POINT_ENERGY>  (168) 
0

>  <NONCOV_INTER_ENERGY_QM>  (168) 
0

>  <FF_Energy>  (168) 
-5.35

>  <QM_Energy>  (168) 
-13.0

>  <source>  (168) 
ETAM_MSM

>  <Index>  (168) 
982

$$$$
ETAM-pdb2eky-B-LYS-6:MSM-pdb2eky-B-MET-1
     RDKit          3D

 20 18  0  0  0  0  0  0  0  0999 V2000
    1.2358    0.8722   -0.0000 C   0  0  0  0  0  0  0  0  0  0  0  0
    1.2956    1.3454    0.8764 H   0  0  0  0  0  0  0  0  0  0  0  0
    1.1606    1.5364   -0.7404 H   0  0  0  0  0  0  0  0  0  0  0  0
    2.1458    0.2899   -0.1441 H   0  0  0  0  0  0  0  0  0  0  0  0
    0.0000    0.0000    0.0000 C   0  0  0  0  0  0  0  0  0  0  0  0
    0.0064   -0.5788   -0.8159 H   0  0  0  0  0  0  0  0  0  0  0  0
    0.0053   -0.5784    0.8166 H   0  0  0  0  0  0  0  0  0  0  0  0
   -1.2358    0.8302   -0.0000 N   0  0  0  0  0  4  0  0  0  0  0  0
   -1.8377    0.5283   -0.7390 H   0  0  0  0  0  0  0  0  0  0  0  0
   -1.7047    0.7275    0.8768 H   0  0  0  0  0  0  0  0  0  0  0  0
   -0.9909    1.7892   -0.1378 H   0  0  0  0  0  0  0  0  0  0  0  0
   -1.7843   -3.7820   -2.7710 C   0  0  0  0  0  0  0  0  0  0  0  0
   -1.4788   -4.3182   -1.9376 H   0  0  0  0  0  0  0  0  0  0  0  0
   -1.0480   -3.9792   -3.4753 H   0  0  0  0  0  0  0  0  0  0  0  0
   -2.7162   -4.2205   -3.1278 H   0  0  0  0  0  0  0  0  0  0  0  0
   -1.8520   -2.0131   -2.3999 S   0  0  0  0  0  0  0  0  0  0  0  0
   -1.8095   -1.3179   -4.0493 C   0  0  0  0  0  0  0  0  0  0  0  0
   -1.5560   -0.3507   -4.0002 H   0  0  0  0  0  0  0  0  0  0  0  0
   -1.1359   -1.8093   -4.6042 H   0  0  0  0  0  0  0  0  0  0  0  0
   -2.7125   -1.4024   -4.4726 H   0  0  0  0  0  0  0  0  0  0  0  0
  1  5  1  0
  5  8  1  0
  1  2  1  0
  1  3  1  0
  1  4  1  0
  5  6  1  0
  5  7  1  0
  8  9  1  0
  8 10  1  0
  8 11  1  0
 12 16  1  0
 16 17  1  0
 12 13  1  0
 12 14  1  0
 12 15  1  0
 17 18  1  0
 17 19  1  0
 17 20  1  0
M  CHG  1   8   1
M  END
>  <PDB_ID>  (169) 
pdb2eky

>  <RESIDUE_NAME>  (169) 
LYS   MET

>  <FRAG_NAME>  (169) 
ETAM   MSM

>  <FRAG_ATOM_NUM>  (169) 
fragi: 11  fragj: 9

>  <atom.prop.CHAIN_ID>  (169) 
A A A A A A A A A A A Z Z Z Z Z Z Z Z Z

>  <atom.prop.IS_HEAVY_ATOM>  (169) 
1 0 0 0 1 0 0 1 0 0 0 1 0 0 0 1 1 0 0 0

>  <DIFUSE_FUNC_ATOM>  (169) 
n/a

>  <FINAL_SINGLE_POINT_ENERGY>  (169) 
0

>  <NONCOV_INTER_ENERGY_QM>  (169) 
0

>  <FF_Energy>  (169) 
-4.88

>  <QM_Energy>  (169) 
-10.63

>  <source>  (169) 
ETAM_MSM

>  <Index>  (169) 
983

$$$$
ETAM-pdb2eky-B-LYS-93:MSM-pdb2eky-A-MET-45
     RDKit          3D

 20 18  0  0  0  0  0  0  0  0999 V2000
    1.2508    0.8712    0.0000 C   0  0  0  0  0  0  0  0  0  0  0  0
    1.1854    1.5197    0.7484 H   0  0  0  0  0  0  0  0  0  0  0  0
    1.3078    1.3432   -0.8709 H   0  0  0  0  0  0  0  0  0  0  0  0
    2.1498    0.2697    0.1344 H   0  0  0  0  0  0  0  0  0  0  0  0
    0.0000    0.0000    0.0000 C   0  0  0  0  0  0  0  0  0  0  0  0
    0.0127   -0.5852   -0.8161 H   0  0  0  0  0  0  0  0  0  0  0  0
    0.0123   -0.5850    0.8164 H   0  0  0  0  0  0  0  0  0  0  0  0
   -1.2508    0.8116    0.0000 N   0  0  0  0  0  4  0  0  0  0  0  0
   -1.2826    1.3688    0.8293 H   0  0  0  0  0  0  0  0  0  0  0  0
   -1.2596    1.4048   -0.8045 H   0  0  0  0  0  0  0  0  0  0  0  0
   -2.0411    0.2007   -0.0253 H   0  0  0  0  0  0  0  0  0  0  0  0
   -2.0545    3.9528   -3.4227 C   0  0  0  0  0  0  0  0  0  0  0  0
   -1.1186    3.6647   -3.7190 H   0  0  0  0  0  0  0  0  0  0  0  0
   -2.1490    4.9317   -3.7055 H   0  0  0  0  0  0  0  0  0  0  0  0
   -2.7885    3.3614   -3.9701 H   0  0  0  0  0  0  0  0  0  0  0  0
   -2.2282    3.7917   -1.6184 S   0  0  0  0  0  0  0  0  0  0  0  0
   -3.6903    4.8011   -1.3500 C   0  0  0  0  0  0  0  0  0  0  0  0
   -3.4976    5.7445   -1.6195 H   0  0  0  0  0  0  0  0  0  0  0  0
   -4.4466    4.4448   -1.8998 H   0  0  0  0  0  0  0  0  0  0  0  0
   -3.9396    4.7747   -0.3815 H   0  0  0  0  0  0  0  0  0  0  0  0
  1  5  1  0
  5  8  1  0
  1  2  1  0
  1  3  1  0
  1  4  1  0
  5  6  1  0
  5  7  1  0
  8  9  1  0
  8 10  1  0
  8 11  1  0
 12 16  1  0
 16 17  1  0
 12 13  1  0
 12 14  1  0
 12 15  1  0
 17 18  1  0
 17 19  1  0
 17 20  1  0
M  CHG  1   8   1
M  END
>  <PDB_ID>  (170) 
pdb2eky

>  <RESIDUE_NAME>  (170) 
LYS   MET

>  <FRAG_NAME>  (170) 
ETAM   MSM

>  <FRAG_ATOM_NUM>  (170) 
fragi: 11  fragj: 9

>  <atom.prop.CHAIN_ID>  (170) 
A A A A A A A A A A A Z Z Z Z Z Z Z Z Z

>  <atom.prop.IS_HEAVY_ATOM>  (170) 
1 0 0 0 1 0 0 1 0 0 0 1 0 0 0 1 1 0 0 0

>  <DIFUSE_FUNC_ATOM>  (170) 
n/a

>  <FINAL_SINGLE_POINT_ENERGY>  (170) 
0

>  <NONCOV_INTER_ENERGY_QM>  (170) 
0

>  <FF_Energy>  (170) 
-5.41

>  <QM_Energy>  (170) 
-13.19

>  <source>  (170) 
ETAM_MSM

>  <Index>  (170) 
986

$$$$
ETAM-pdb2eky-C-LYS-93:MSM-pdb2eky-D-MET-45
     RDKit          3D

 20 18  0  0  0  0  0  0  0  0999 V2000
    1.2530    0.8741   -0.0000 C   0  0  0  0  0  0  0  0  0  0  0  0
    1.2394    1.4459    0.8081 H   0  0  0  0  0  0  0  0  0  0  0  0
    1.2564    1.4219   -0.8251 H   0  0  0  0  0  0  0  0  0  0  0  0
    2.1531    0.2597    0.0189 H   0  0  0  0  0  0  0  0  0  0  0  0
    0.0000    0.0000    0.0000 C   0  0  0  0  0  0  0  0  0  0  0  0
    0.0171   -0.5867   -0.8161 H   0  0  0  0  0  0  0  0  0  0  0  0
    0.0168   -0.5876    0.8165 H   0  0  0  0  0  0  0  0  0  0  0  0
   -1.2530    0.8029   -0.0000 N   0  0  0  0  0  4  0  0  0  0  0  0
   -1.8923    0.4209   -0.6669 H   0  0  0  0  0  0  0  0  0  0  0  0
   -1.6641    0.7764    0.9108 H   0  0  0  0  0  0  0  0  0  0  0  0
   -1.0409    1.7482   -0.2438 H   0  0  0  0  0  0  0  0  0  0  0  0
   -2.6183    4.4064   -2.7789 C   0  0  0  0  0  0  0  0  0  0  0  0
   -1.6886    4.2348   -3.1805 H   0  0  0  0  0  0  0  0  0  0  0  0
   -2.7895    5.4109   -2.9139 H   0  0  0  0  0  0  0  0  0  0  0  0
   -3.3523    3.8503   -3.3622 H   0  0  0  0  0  0  0  0  0  0  0  0
   -2.6356    3.9901   -1.0132 S   0  0  0  0  0  0  0  0  0  0  0  0
   -4.1780    4.7505   -0.4996 C   0  0  0  0  0  0  0  0  0  0  0  0
   -4.4335    5.4620   -1.1541 H   0  0  0  0  0  0  0  0  0  0  0  0
   -4.8974    4.0561   -0.4646 H   0  0  0  0  0  0  0  0  0  0  0  0
   -4.0639    5.1570    0.4072 H   0  0  0  0  0  0  0  0  0  0  0  0
  1  5  1  0
  5  8  1  0
  1  2  1  0
  1  3  1  0
  1  4  1  0
  5  6  1  0
  5  7  1  0
  8  9  1  0
  8 10  1  0
  8 11  1  0
 12 16  1  0
 16 17  1  0
 12 13  1  0
 12 14  1  0
 12 15  1  0
 17 18  1  0
 17 19  1  0
 17 20  1  0
M  CHG  1   8   1
M  END
>  <PDB_ID>  (171) 
pdb2eky

>  <RESIDUE_NAME>  (171) 
LYS   MET

>  <FRAG_NAME>  (171) 
ETAM   MSM

>  <FRAG_ATOM_NUM>  (171) 
fragi: 11  fragj: 9

>  <atom.prop.CHAIN_ID>  (171) 
A A A A A A A A A A A Z Z Z Z Z Z Z Z Z

>  <atom.prop.IS_HEAVY_ATOM>  (171) 
1 0 0 0 1 0 0 1 0 0 0 1 0 0 0 1 1 0 0 0

>  <DIFUSE_FUNC_ATOM>  (171) 
n/a

>  <FINAL_SINGLE_POINT_ENERGY>  (171) 
0

>  <NONCOV_INTER_ENERGY_QM>  (171) 
0

>  <FF_Energy>  (171) 
-5.11

>  <QM_Energy>  (171) 
-12.24

>  <source>  (171) 
ETAM_MSM

>  <Index>  (171) 
989

$$$$
ETAM-pdb1dza-A-LYS-141:MSM-pdb1dza-A-MET-135
     RDKit          3D

 20 18  0  0  0  0  0  0  0  0999 V2000
    1.2524    0.8657    0.0000 C   0  0  0  0  0  0  0  0  0  0  0  0
    1.2213    1.4687    0.7805 H   0  0  0  0  0  0  0  0  0  0  0  0
    1.2907    1.3676   -0.8483 H   0  0  0  0  0  0  0  0  0  0  0  0
    2.1367    0.2332    0.0776 H   0  0  0  0  0  0  0  0  0  0  0  0
    0.0000    0.0000    0.0000 C   0  0  0  0  0  0  0  0  0  0  0  0
    0.0199   -0.5952   -0.8165 H   0  0  0  0  0  0  0  0  0  0  0  0
    0.0190   -0.5945    0.8161 H   0  0  0  0  0  0  0  0  0  0  0  0
   -1.2524    0.7883   -0.0000 N   0  0  0  0  0  4  0  0  0  0  0  0
   -1.1054    1.6518    0.4848 H   0  0  0  0  0  0  0  0  0  0  0  0
   -1.5277    0.9806   -0.9428 H   0  0  0  0  0  0  0  0  0  0  0  0
   -1.9755    0.2693    0.4580 H   0  0  0  0  0  0  0  0  0  0  0  0
    1.3056    4.8354   -0.2317 C   0  0  0  0  0  0  0  0  0  0  0  0
    1.2916    4.3731    0.6899 H   0  0  0  0  0  0  0  0  0  0  0  0
    1.0970    5.8257   -0.0304 H   0  0  0  0  0  0  0  0  0  0  0  0
    2.3336    4.7936   -0.5918 H   0  0  0  0  0  0  0  0  0  0  0  0
    0.1224    4.1241   -1.3471 S   0  0  0  0  0  0  0  0  0  0  0  0
    0.1664    5.3219   -2.6905 C   0  0  0  0  0  0  0  0  0  0  0  0
   -0.7119    5.3160   -3.1685 H   0  0  0  0  0  0  0  0  0  0  0  0
    0.3379    6.2326   -2.3165 H   0  0  0  0  0  0  0  0  0  0  0  0
    0.8975    5.0784   -3.3279 H   0  0  0  0  0  0  0  0  0  0  0  0
  1  5  1  0
  5  8  1  0
  1  2  1  0
  1  3  1  0
  1  4  1  0
  5  6  1  0
  5  7  1  0
  8  9  1  0
  8 10  1  0
  8 11  1  0
 12 16  1  0
 16 17  1  0
 12 13  1  0
 12 14  1  0
 12 15  1  0
 17 18  1  0
 17 19  1  0
 17 20  1  0
M  CHG  1   8   1
M  END
>  <PDB_ID>  (172) 
pdb1dza

>  <RESIDUE_NAME>  (172) 
LYS   MET

>  <FRAG_NAME>  (172) 
ETAM   MSM

>  <FRAG_ATOM_NUM>  (172) 
fragi: 11  fragj: 9

>  <atom.prop.CHAIN_ID>  (172) 
A A A A A A A A A A A Z Z Z Z Z Z Z Z Z

>  <atom.prop.IS_HEAVY_ATOM>  (172) 
1 0 0 0 1 0 0 1 0 0 0 1 0 0 0 1 1 0 0 0

>  <DIFUSE_FUNC_ATOM>  (172) 
n/a

>  <FINAL_SINGLE_POINT_ENERGY>  (172) 
0

>  <NONCOV_INTER_ENERGY_QM>  (172) 
0

>  <FF_Energy>  (172) 
-5.17

>  <QM_Energy>  (172) 
-10.52

>  <source>  (172) 
ETAM_MSM

>  <Index>  (172) 
994

$$$$
ETAM-pdb2ed6-A-LYS-123:MSM-pdb2ed6-A-MET-91
     RDKit          3D

 20 18  0  0  0  0  0  0  0  0999 V2000
    1.2452    0.8710   -0.0000 C   0  0  0  0  0  0  0  0  0  0  0  0
    1.2318    1.4480   -0.8150 H   0  0  0  0  0  0  0  0  0  0  0  0
    2.0494    0.2795   -0.0200 H   0  0  0  0  0  0  0  0  0  0  0  0
    1.3076    1.5131    0.8786 H   0  0  0  0  0  0  0  0  0  0  0  0
    0.0000    0.0000    0.0000 C   0  0  0  0  0  0  0  0  0  0  0  0
    0.0151   -0.5876   -0.8159 H   0  0  0  0  0  0  0  0  0  0  0  0
    0.0146   -0.5875    0.8163 H   0  0  0  0  0  0  0  0  0  0  0  0
   -1.2452    0.8044   -0.0000 N   0  0  0  0  0  4  0  0  0  0  0  0
   -1.0193    1.7700    0.1338 H   0  0  0  0  0  0  0  0  0  0  0  0
   -1.7165    0.6912   -0.8752 H   0  0  0  0  0  0  0  0  0  0  0  0
   -1.8428    0.4962    0.7408 H   0  0  0  0  0  0  0  0  0  0  0  0
   -3.3974    3.5129   -1.2016 C   0  0  0  0  0  0  0  0  0  0  0  0
   -3.8746    3.6733   -0.3161 H   0  0  0  0  0  0  0  0  0  0  0  0
   -3.7219    2.6114   -1.5477 H   0  0  0  0  0  0  0  0  0  0  0  0
   -3.7053    4.2860   -1.9056 H   0  0  0  0  0  0  0  0  0  0  0  0
   -1.5957    3.4968   -0.9643 S   0  0  0  0  0  0  0  0  0  0  0  0
   -1.4033    4.7888    0.2900 C   0  0  0  0  0  0  0  0  0  0  0  0
   -1.8104    4.4759    1.1454 H   0  0  0  0  0  0  0  0  0  0  0  0
   -0.4314    4.9705    0.4242 H   0  0  0  0  0  0  0  0  0  0  0  0
   -1.8634    5.6171   -0.0221 H   0  0  0  0  0  0  0  0  0  0  0  0
  1  5  1  0
  5  8  1  0
  1  2  1  0
  1  3  1  0
  1  4  1  0
  5  6  1  0
  5  7  1  0
  8  9  1  0
  8 10  1  0
  8 11  1  0
 12 16  1  0
 16 17  1  0
 12 13  1  0
 12 14  1  0
 12 15  1  0
 17 18  1  0
 17 19  1  0
 17 20  1  0
M  CHG  1   8   1
M  END
>  <PDB_ID>  (173) 
pdb2ed6

>  <RESIDUE_NAME>  (173) 
LYS   MET

>  <FRAG_NAME>  (173) 
ETAM   MSM

>  <FRAG_ATOM_NUM>  (173) 
fragi: 11  fragj: 9

>  <atom.prop.CHAIN_ID>  (173) 
A A A A A A A A A A A Z Z Z Z Z Z Z Z Z

>  <atom.prop.IS_HEAVY_ATOM>  (173) 
1 0 0 0 1 0 0 1 0 0 0 1 0 0 0 1 1 0 0 0

>  <DIFUSE_FUNC_ATOM>  (173) 
n/a

>  <FINAL_SINGLE_POINT_ENERGY>  (173) 
0

>  <NONCOV_INTER_ENERGY_QM>  (173) 
0

>  <FF_Energy>  (173) 
-0.92

>  <QM_Energy>  (173) 
-10.69

>  <source>  (173) 
ETAM_MSM

>  <Index>  (173) 
995

$$$$
ETAM-pdb2eky-D-LYS-93:MSM-pdb2eky-C-MET-45
     RDKit          3D

 20 18  0  0  0  0  0  0  0  0999 V2000
    1.2546    0.8671   -0.0000 C   0  0  0  0  0  0  0  0  0  0  0  0
    1.2162    1.4761    0.7831 H   0  0  0  0  0  0  0  0  0  0  0  0
    1.2801    1.3836   -0.8468 H   0  0  0  0  0  0  0  0  0  0  0  0
    2.1531    0.2540    0.0702 H   0  0  0  0  0  0  0  0  0  0  0  0
    0.0000    0.0000    0.0000 C   0  0  0  0  0  0  0  0  0  0  0  0
    0.0104   -0.5856   -0.8162 H   0  0  0  0  0  0  0  0  0  0  0  0
    0.0104   -0.5861    0.8166 H   0  0  0  0  0  0  0  0  0  0  0  0
   -1.2546    0.8136   -0.0000 N   0  0  0  0  0  4  0  0  0  0  0  0
   -1.9855    0.2889    0.4316 H   0  0  0  0  0  0  0  0  0  0  0  0
   -1.0985    1.6577    0.5104 H   0  0  0  0  0  0  0  0  0  0  0  0
   -1.5054    1.0303   -0.9418 H   0  0  0  0  0  0  0  0  0  0  0  0
   -2.2967    4.3103   -3.0031 C   0  0  0  0  0  0  0  0  0  0  0  0
   -1.3574    4.1601   -3.3884 H   0  0  0  0  0  0  0  0  0  0  0  0
   -2.4852    5.3111   -3.1292 H   0  0  0  0  0  0  0  0  0  0  0  0
   -3.0102    3.7453   -3.6030 H   0  0  0  0  0  0  0  0  0  0  0  0
   -2.3386    3.8725   -1.2423 S   0  0  0  0  0  0  0  0  0  0  0  0
   -3.7921    4.7261   -0.7221 C   0  0  0  0  0  0  0  0  0  0  0  0
   -3.6670    5.7196   -0.8184 H   0  0  0  0  0  0  0  0  0  0  0  0
   -4.5804    4.4467   -1.2804 H   0  0  0  0  0  0  0  0  0  0  0  0
   -3.9919    4.5195    0.2419 H   0  0  0  0  0  0  0  0  0  0  0  0
  1  5  1  0
  5  8  1  0
  1  2  1  0
  1  3  1  0
  1  4  1  0
  5  6  1  0
  5  7  1  0
  8  9  1  0
  8 10  1  0
  8 11  1  0
 12 16  1  0
 16 17  1  0
 12 13  1  0
 12 14  1  0
 12 15  1  0
 17 18  1  0
 17 19  1  0
 17 20  1  0
M  CHG  1   8   1
M  END
>  <PDB_ID>  (174) 
pdb2eky

>  <RESIDUE_NAME>  (174) 
LYS   MET

>  <FRAG_NAME>  (174) 
ETAM   MSM

>  <FRAG_ATOM_NUM>  (174) 
fragi: 11  fragj: 9

>  <atom.prop.CHAIN_ID>  (174) 
A A A A A A A A A A A Z Z Z Z Z Z Z Z Z

>  <atom.prop.IS_HEAVY_ATOM>  (174) 
1 0 0 0 1 0 0 1 0 0 0 1 0 0 0 1 1 0 0 0

>  <DIFUSE_FUNC_ATOM>  (174) 
n/a

>  <FINAL_SINGLE_POINT_ENERGY>  (174) 
0

>  <NONCOV_INTER_ENERGY_QM>  (174) 
0

>  <FF_Energy>  (174) 
-5.38

>  <QM_Energy>  (174) 
-12.83

>  <source>  (174) 
ETAM_MSM

>  <Index>  (174) 
997

$$$$
ETAM-pdb2eql-A-LYS-66:MSM-pdb2eql-A-MET-79
     RDKit          3D

 20 18  0  0  0  0  0  0  0  0999 V2000
    1.2017    0.9101   -0.0000 C   0  0  0  0  0  0  0  0  0  0  0  0
    1.4398    1.1244    0.9177 H   0  0  0  0  0  0  0  0  0  0  0  0
    1.0159    1.6847   -0.5566 H   0  0  0  0  0  0  0  0  0  0  0  0
    2.0029    0.3255   -0.4522 H   0  0  0  0  0  0  0  0  0  0  0  0
    0.0000    0.0000    0.0000 C   0  0  0  0  0  0  0  0  0  0  0  0
    0.0362   -0.5773   -0.8159 H   0  0  0  0  0  0  0  0  0  0  0  0
    0.0356   -0.5767    0.8162 H   0  0  0  0  0  0  0  0  0  0  0  0
   -1.2017    0.7955   -0.0000 N   0  0  0  0  0  4  0  0  0  0  0  0
   -1.4647    1.0416    0.9406 H   0  0  0  0  0  0  0  0  0  0  0  0
   -1.0651    1.6460   -0.5222 H   0  0  0  0  0  0  0  0  0  0  0  0
   -1.9646    0.2868   -0.4188 H   0  0  0  0  0  0  0  0  0  0  0  0
   -0.6548   -2.7476    4.2757 C   0  0  0  0  0  0  0  0  0  0  0  0
   -1.1182   -3.5453    3.8882 H   0  0  0  0  0  0  0  0  0  0  0  0
   -1.2282   -2.3463    4.9912 H   0  0  0  0  0  0  0  0  0  0  0  0
    0.3011   -3.0523    4.7017 H   0  0  0  0  0  0  0  0  0  0  0  0
   -0.2817   -1.5467    3.0064 S   0  0  0  0  0  0  0  0  0  0  0  0
   -0.6502   -0.0498    3.8262 C   0  0  0  0  0  0  0  0  0  0  0  0
   -1.2837   -0.2084    4.5947 H   0  0  0  0  0  0  0  0  0  0  0  0
    0.1882    0.3735    4.1934 H   0  0  0  0  0  0  0  0  0  0  0  0
   -1.0824    0.6078    3.1950 H   0  0  0  0  0  0  0  0  0  0  0  0
  1  5  1  0
  5  8  1  0
  1  2  1  0
  1  3  1  0
  1  4  1  0
  5  6  1  0
  5  7  1  0
  8  9  1  0
  8 10  1  0
  8 11  1  0
 12 16  1  0
 16 17  1  0
 12 13  1  0
 12 14  1  0
 12 15  1  0
 17 18  1  0
 17 19  1  0
 17 20  1  0
M  CHG  1   8   1
M  END
>  <PDB_ID>  (175) 
pdb2eql

>  <RESIDUE_NAME>  (175) 
LYS   MET

>  <FRAG_NAME>  (175) 
ETAM   MSM

>  <FRAG_ATOM_NUM>  (175) 
fragi: 11  fragj: 9

>  <atom.prop.CHAIN_ID>  (175) 
A A A A A A A A A A A Z Z Z Z Z Z Z Z Z

>  <atom.prop.IS_HEAVY_ATOM>  (175) 
1 0 0 0 1 0 0 1 0 0 0 1 0 0 0 1 1 0 0 0

>  <DIFUSE_FUNC_ATOM>  (175) 
n/a

>  <FINAL_SINGLE_POINT_ENERGY>  (175) 
0

>  <NONCOV_INTER_ENERGY_QM>  (175) 
0

>  <FF_Energy>  (175) 
0.58

>  <QM_Energy>  (175) 
-7.02

>  <source>  (175) 
ETAM_MSM

>  <Index>  (175) 
999

$$$$
ETAM-pdb2eky-E-LYS-93:MSM-pdb2eky-F-MET-45
     RDKit          3D

 20 18  0  0  0  0  0  0  0  0999 V2000
    1.2607    0.8637    0.0000 C   0  0  0  0  0  0  0  0  0  0  0  0
    1.2273    1.4709    0.7821 H   0  0  0  0  0  0  0  0  0  0  0  0
    1.2910    1.3767   -0.8464 H   0  0  0  0  0  0  0  0  0  0  0  0
    2.1556    0.2456    0.0713 H   0  0  0  0  0  0  0  0  0  0  0  0
    0.0000    0.0000    0.0000 C   0  0  0  0  0  0  0  0  0  0  0  0
    0.0162   -0.5932   -0.8163 H   0  0  0  0  0  0  0  0  0  0  0  0
    0.0157   -0.5929    0.8164 H   0  0  0  0  0  0  0  0  0  0  0  0
   -1.2607    0.7956   -0.0000 N   0  0  0  0  0  4  0  0  0  0  0  0
   -1.4677    1.0859    0.9335 H   0  0  0  0  0  0  0  0  0  0  0  0
   -1.1447    1.5987   -0.5832 H   0  0  0  0  0  0  0  0  0  0  0  0
   -2.0072    0.2309   -0.3492 H   0  0  0  0  0  0  0  0  0  0  0  0
   -2.2866    4.5001   -2.9263 C   0  0  0  0  0  0  0  0  0  0  0  0
   -1.3677    4.2825   -3.3288 H   0  0  0  0  0  0  0  0  0  0  0  0
   -2.4118    5.5091   -3.0643 H   0  0  0  0  0  0  0  0  0  0  0  0
   -3.0474    3.9760   -3.5047 H   0  0  0  0  0  0  0  0  0  0  0  0
   -2.3251    4.0878   -1.1647 S   0  0  0  0  0  0  0  0  0  0  0  0
   -3.7642    5.0745   -0.6162 C   0  0  0  0  0  0  0  0  0  0  0  0
   -4.5573    4.8023   -1.1514 H   0  0  0  0  0  0  0  0  0  0  0  0
   -3.9214    4.8959    0.3501 H   0  0  0  0  0  0  0  0  0  0  0  0
   -3.5620    6.0375   -0.7618 H   0  0  0  0  0  0  0  0  0  0  0  0
  1  5  1  0
  5  8  1  0
  1  2  1  0
  1  3  1  0
  1  4  1  0
  5  6  1  0
  5  7  1  0
  8  9  1  0
  8 10  1  0
  8 11  1  0
 12 16  1  0
 16 17  1  0
 12 13  1  0
 12 14  1  0
 12 15  1  0
 17 18  1  0
 17 19  1  0
 17 20  1  0
M  CHG  1   8   1
M  END
>  <PDB_ID>  (176) 
pdb2eky

>  <RESIDUE_NAME>  (176) 
LYS   MET

>  <FRAG_NAME>  (176) 
ETAM   MSM

>  <FRAG_ATOM_NUM>  (176) 
fragi: 11  fragj: 9

>  <atom.prop.CHAIN_ID>  (176) 
A A A A A A A A A A A Z Z Z Z Z Z Z Z Z

>  <atom.prop.IS_HEAVY_ATOM>  (176) 
1 0 0 0 1 0 0 1 0 0 0 1 0 0 0 1 1 0 0 0

>  <DIFUSE_FUNC_ATOM>  (176) 
n/a

>  <FINAL_SINGLE_POINT_ENERGY>  (176) 
0

>  <NONCOV_INTER_ENERGY_QM>  (176) 
0

>  <FF_Energy>  (176) 
-5.12

>  <QM_Energy>  (176) 
-12.4

>  <source>  (176) 
ETAM_MSM

>  <Index>  (176) 
1001

$$$$
ETAM-pdb2eq7-A-LYS-84:MSM-pdb2eq7-A-MET-81
     RDKit          3D

 20 18  0  0  0  0  0  0  0  0999 V2000
    1.2488    0.8753    0.0000 C   0  0  0  0  0  0  0  0  0  0  0  0
    1.1659    1.5449    0.7283 H   0  0  0  0  0  0  0  0  0  0  0  0
    1.3216    1.3233   -0.8829 H   0  0  0  0  0  0  0  0  0  0  0  0
    2.1476    0.2822    0.1688 H   0  0  0  0  0  0  0  0  0  0  0  0
    0.0000    0.0000    0.0000 C   0  0  0  0  0  0  0  0  0  0  0  0
    0.0120   -0.5815   -0.8167 H   0  0  0  0  0  0  0  0  0  0  0  0
    0.0120   -0.5821    0.8158 H   0  0  0  0  0  0  0  0  0  0  0  0
   -1.2488    0.8170   -0.0000 N   0  0  0  0  0  4  0  0  0  0  0  0
   -1.9598    0.3313   -0.5060 H   0  0  0  0  0  0  0  0  0  0  0  0
   -1.5467    0.9636    0.9426 H   0  0  0  0  0  0  0  0  0  0  0  0
   -1.0660    1.6972   -0.4358 H   0  0  0  0  0  0  0  0  0  0  0  0
   -1.8194   -0.7855   -4.6379 C   0  0  0  0  0  0  0  0  0  0  0  0
   -1.3962   -0.6610   -5.5560 H   0  0  0  0  0  0  0  0  0  0  0  0
   -2.8281   -0.7889   -4.7812 H   0  0  0  0  0  0  0  0  0  0  0  0
   -1.5179   -1.7550   -4.2414 H   0  0  0  0  0  0  0  0  0  0  0  0
   -1.3376    0.5560   -3.5264 S   0  0  0  0  0  0  0  0  0  0  0  0
   -1.6205    1.9873   -4.5733 C   0  0  0  0  0  0  0  0  0  0  0  0
   -1.8513    1.6832   -5.4983 H   0  0  0  0  0  0  0  0  0  0  0  0
   -2.3756    2.5279   -4.2015 H   0  0  0  0  0  0  0  0  0  0  0  0
   -0.7922    2.5473   -4.6026 H   0  0  0  0  0  0  0  0  0  0  0  0
  1  5  1  0
  5  8  1  0
  1  2  1  0
  1  3  1  0
  1  4  1  0
  5  6  1  0
  5  7  1  0
  8  9  1  0
  8 10  1  0
  8 11  1  0
 12 16  1  0
 16 17  1  0
 12 13  1  0
 12 14  1  0
 12 15  1  0
 17 18  1  0
 17 19  1  0
 17 20  1  0
M  CHG  1   8   1
M  END
>  <PDB_ID>  (177) 
pdb2eq7

>  <RESIDUE_NAME>  (177) 
LYS   MET

>  <FRAG_NAME>  (177) 
ETAM   MSM

>  <FRAG_ATOM_NUM>  (177) 
fragi: 11  fragj: 9

>  <atom.prop.CHAIN_ID>  (177) 
A A A A A A A A A A A Z Z Z Z Z Z Z Z Z

>  <atom.prop.IS_HEAVY_ATOM>  (177) 
1 0 0 0 1 0 0 1 0 0 0 1 0 0 0 1 1 0 0 0

>  <DIFUSE_FUNC_ATOM>  (177) 
n/a

>  <FINAL_SINGLE_POINT_ENERGY>  (177) 
0

>  <NONCOV_INTER_ENERGY_QM>  (177) 
0

>  <FF_Energy>  (177) 
-5.6

>  <QM_Energy>  (177) 
-13.29

>  <source>  (177) 
ETAM_MSM

>  <Index>  (177) 
1006

$$$$
ETAM-pdb2eky-F-LYS-93:MSM-pdb2eky-E-MET-45
     RDKit          3D

 20 18  0  0  0  0  0  0  0  0999 V2000
    1.2620    0.8558   -0.0000 C   0  0  0  0  0  0  0  0  0  0  0  0
    1.2615    1.4242    0.8129 H   0  0  0  0  0  0  0  0  0  0  0  0
    1.2677    1.4130   -0.8205 H   0  0  0  0  0  0  0  0  0  0  0  0
    2.1579    0.2351    0.0088 H   0  0  0  0  0  0  0  0  0  0  0  0
    0.0000    0.0000    0.0000 C   0  0  0  0  0  0  0  0  0  0  0  0
    0.0095   -0.5930   -0.8162 H   0  0  0  0  0  0  0  0  0  0  0  0
    0.0103   -0.5935    0.8165 H   0  0  0  0  0  0  0  0  0  0  0  0
   -1.2620    0.8022    0.0000 N   0  0  0  0  0  4  0  0  0  0  0  0
   -1.9799    0.2836    0.4600 H   0  0  0  0  0  0  0  0  0  0  0  0
   -1.1042    1.6616    0.4833 H   0  0  0  0  0  0  0  0  0  0  0  0
   -1.5323    0.9889   -0.9430 H   0  0  0  0  0  0  0  0  0  0  0  0
   -2.5914    4.4977   -2.8909 C   0  0  0  0  0  0  0  0  0  0  0  0
   -1.6495    4.3877   -3.2868 H   0  0  0  0  0  0  0  0  0  0  0  0
   -2.8131    5.4956   -2.9952 H   0  0  0  0  0  0  0  0  0  0  0  0
   -3.2876    3.9276   -3.5059 H   0  0  0  0  0  0  0  0  0  0  0  0
   -2.6105    4.0174   -1.1438 S   0  0  0  0  0  0  0  0  0  0  0  0
   -4.0993    4.8370   -0.5689 C   0  0  0  0  0  0  0  0  0  0  0  0
   -3.8508    5.6440   -0.0317 H   0  0  0  0  0  0  0  0  0  0  0  0
   -4.6518    5.1171   -1.3548 H   0  0  0  0  0  0  0  0  0  0  0  0
   -4.6284    4.2080    0.0017 H   0  0  0  0  0  0  0  0  0  0  0  0
  1  5  1  0
  5  8  1  0
  1  2  1  0
  1  3  1  0
  1  4  1  0
  5  6  1  0
  5  7  1  0
  8  9  1  0
  8 10  1  0
  8 11  1  0
 12 16  1  0
 16 17  1  0
 12 13  1  0
 12 14  1  0
 12 15  1  0
 17 18  1  0
 17 19  1  0
 17 20  1  0
M  CHG  1   8   1
M  END
>  <PDB_ID>  (178) 
pdb2eky

>  <RESIDUE_NAME>  (178) 
LYS   MET

>  <FRAG_NAME>  (178) 
ETAM   MSM

>  <FRAG_ATOM_NUM>  (178) 
fragi: 11  fragj: 9

>  <atom.prop.CHAIN_ID>  (178) 
A A A A A A A A A A A Z Z Z Z Z Z Z Z Z

>  <atom.prop.IS_HEAVY_ATOM>  (178) 
1 0 0 0 1 0 0 1 0 0 0 1 0 0 0 1 1 0 0 0

>  <DIFUSE_FUNC_ATOM>  (178) 
n/a

>  <FINAL_SINGLE_POINT_ENERGY>  (178) 
0

>  <NONCOV_INTER_ENERGY_QM>  (178) 
0

>  <FF_Energy>  (178) 
-4.96

>  <QM_Energy>  (178) 
-11.71

>  <source>  (178) 
ETAM_MSM

>  <Index>  (178) 
1010

$$$$
ETAM-pdb1e0t-A-LYS-266:MSM-pdb1e0t-A-MET-262
     RDKit          3D

 20 18  0  0  0  0  0  0  0  0999 V2000
    1.2682    0.7490   -0.0000 C   0  0  0  0  0  0  0  0  0  0  0  0
    1.3090    1.3421    0.7978 H   0  0  0  0  0  0  0  0  0  0  0  0
    1.3416    1.2865   -0.8341 H   0  0  0  0  0  0  0  0  0  0  0  0
    2.1105    0.0585    0.0413 H   0  0  0  0  0  0  0  0  0  0  0  0
    0.0000    0.0000    0.0000 C   0  0  0  0  0  0  0  0  0  0  0  0
   -0.0237   -0.6353   -0.8164 H   0  0  0  0  0  0  0  0  0  0  0  0
   -0.0246   -0.6362    0.8162 H   0  0  0  0  0  0  0  0  0  0  0  0
   -1.2682    0.7811   -0.0000 N   0  0  0  0  0  4  0  0  0  0  0  0
   -1.2492    1.4437    0.7475 H   0  0  0  0  0  0  0  0  0  0  0  0
   -1.3606    1.2614   -0.8711 H   0  0  0  0  0  0  0  0  0  0  0  0
   -2.0401    0.1584    0.1229 H   0  0  0  0  0  0  0  0  0  0  0  0
   -0.3313   -0.3898    4.0178 C   0  0  0  0  0  0  0  0  0  0  0  0
   -0.1225   -1.1103    3.2414 H   0  0  0  0  0  0  0  0  0  0  0  0
   -1.3235   -0.7262    4.2780 H   0  0  0  0  0  0  0  0  0  0  0  0
    0.3153   -0.6396    4.8590 H   0  0  0  0  0  0  0  0  0  0  0  0
   -0.4125    1.2587    3.3135 S   0  0  0  0  0  0  0  0  0  0  0  0
   -0.5071    2.1716    4.7629 C   0  0  0  0  0  0  0  0  0  0  0  0
   -1.3165    1.9111    5.3161 H   0  0  0  0  0  0  0  0  0  0  0  0
    0.3117    2.0339    5.3448 H   0  0  0  0  0  0  0  0  0  0  0  0
   -0.5781    3.1662    4.5746 H   0  0  0  0  0  0  0  0  0  0  0  0
  1  5  1  0
  5  8  1  0
  1  2  1  0
  1  3  1  0
  1  4  1  0
  5  6  1  0
  5  7  1  0
  8  9  1  0
  8 10  1  0
  8 11  1  0
 12 16  1  0
 16 17  1  0
 12 13  1  0
 12 14  1  0
 12 15  1  0
 17 18  1  0
 17 19  1  0
 17 20  1  0
M  CHG  1   8   1
M  END
>  <PDB_ID>  (179) 
pdb1e0t

>  <RESIDUE_NAME>  (179) 
LYS   MET

>  <FRAG_NAME>  (179) 
ETAM   MSM

>  <FRAG_ATOM_NUM>  (179) 
fragi: 11  fragj: 9

>  <atom.prop.CHAIN_ID>  (179) 
A A A A A A A A A A A Z Z Z Z Z Z Z Z Z

>  <atom.prop.IS_HEAVY_ATOM>  (179) 
1 0 0 0 1 0 0 1 0 0 0 1 0 0 0 1 1 0 0 0

>  <DIFUSE_FUNC_ATOM>  (179) 
n/a

>  <FINAL_SINGLE_POINT_ENERGY>  (179) 
0

>  <NONCOV_INTER_ENERGY_QM>  (179) 
0

>  <FF_Energy>  (179) 
-5.68

>  <QM_Energy>  (179) 
-13.21

>  <source>  (179) 
ETAM_MSM

>  <Index>  (179) 
1012

$$$$
ETAM-pdb1e0t-A-LYS-413:MSM-pdb1e0t-A-MET-339
     RDKit          3D

 20 18  0  0  0  0  0  0  0  0999 V2000
    1.3587    0.7067   -0.0000 C   0  0  0  0  0  0  0  0  0  0  0  0
    1.3498    1.4077    0.7166 H   0  0  0  0  0  0  0  0  0  0  0  0
    1.4842    1.1491   -0.8911 H   0  0  0  0  0  0  0  0  0  0  0  0
    2.2038    0.0418    0.1786 H   0  0  0  0  0  0  0  0  0  0  0  0
    0.0000    0.0000    0.0000 C   0  0  0  0  0  0  0  0  0  0  0  0
    0.0502   -0.7280   -0.8165 H   0  0  0  0  0  0  0  0  0  0  0  0
    0.0498   -0.7281    0.8162 H   0  0  0  0  0  0  0  0  0  0  0  0
   -1.3587    0.5448    0.0000 N   0  0  0  0  0  4  0  0  0  0  0  0
   -1.4781    1.1713    0.7744 H   0  0  0  0  0  0  0  0  0  0  0  0
   -1.5286    1.0458   -0.8529 H   0  0  0  0  0  0  0  0  0  0  0  0
   -2.0280   -0.1997    0.0783 H   0  0  0  0  0  0  0  0  0  0  0  0
   -5.5909    0.8380   -2.5441 C   0  0  0  0  0  0  0  0  0  0  0  0
   -6.3078    1.5025   -2.4995 H   0  0  0  0  0  0  0  0  0  0  0  0
   -5.8751   -0.0519   -2.2503 H   0  0  0  0  0  0  0  0  0  0  0  0
   -5.1977    0.7859   -3.5594 H   0  0  0  0  0  0  0  0  0  0  0  0
   -4.1508    1.3879   -1.6130 S   0  0  0  0  0  0  0  0  0  0  0  0
   -3.9320    3.1829   -2.0171 C   0  0  0  0  0  0  0  0  0  0  0  0
   -4.5916    3.6979   -1.4860 H   0  0  0  0  0  0  0  0  0  0  0  0
   -3.0055    3.4388   -1.7765 H   0  0  0  0  0  0  0  0  0  0  0  0
   -4.0908    3.2982   -2.9888 H   0  0  0  0  0  0  0  0  0  0  0  0
  1  5  1  0
  5  8  1  0
  1  2  1  0
  1  3  1  0
  1  4  1  0
  5  6  1  0
  5  7  1  0
  8  9  1  0
  8 10  1  0
  8 11  1  0
 12 16  1  0
 16 17  1  0
 12 13  1  0
 12 14  1  0
 12 15  1  0
 17 18  1  0
 17 19  1  0
 17 20  1  0
M  CHG  1   8   1
M  END
>  <PDB_ID>  (180) 
pdb1e0t

>  <RESIDUE_NAME>  (180) 
LYS   MET

>  <FRAG_NAME>  (180) 
ETAM   MSM

>  <FRAG_ATOM_NUM>  (180) 
fragi: 11  fragj: 9

>  <atom.prop.CHAIN_ID>  (180) 
A A A A A A A A A A A Z Z Z Z Z Z Z Z Z

>  <atom.prop.IS_HEAVY_ATOM>  (180) 
1 0 0 0 1 0 0 1 0 0 0 1 0 0 0 1 1 0 0 0

>  <DIFUSE_FUNC_ATOM>  (180) 
n/a

>  <FINAL_SINGLE_POINT_ENERGY>  (180) 
0

>  <NONCOV_INTER_ENERGY_QM>  (180) 
0

>  <FF_Energy>  (180) 
-4.8

>  <QM_Energy>  (180) 
-13.2

>  <source>  (180) 
ETAM_MSM

>  <Index>  (180) 
1013

$$$$
ETAM-pdb1e0t-B-LYS-266:MSM-pdb1e0t-B-MET-262
     RDKit          3D

 20 18  0  0  0  0  0  0  0  0999 V2000
    1.2432    0.9013   -0.0000 C   0  0  0  0  0  0  0  0  0  0  0  0
    1.1621    1.5468    0.7552 H   0  0  0  0  0  0  0  0  0  0  0  0
    1.2735    1.3921   -0.8671 H   0  0  0  0  0  0  0  0  0  0  0  0
    2.1686    0.3375    0.1182 H   0  0  0  0  0  0  0  0  0  0  0  0
    0.0000    0.0000    0.0000 C   0  0  0  0  0  0  0  0  0  0  0  0
    0.0093   -0.5624   -0.8164 H   0  0  0  0  0  0  0  0  0  0  0  0
    0.0092   -0.5626    0.8168 H   0  0  0  0  0  0  0  0  0  0  0  0
   -1.2432    0.8498    0.0000 N   0  0  0  0  0  4  0  0  0  0  0  0
   -2.0198    0.2855   -0.2693 H   0  0  0  0  0  0  0  0  0  0  0  0
   -1.3860    1.2126    0.9178 H   0  0  0  0  0  0  0  0  0  0  0  0
   -1.1230    1.5979   -0.6481 H   0  0  0  0  0  0  0  0  0  0  0  0
   -0.2141   -1.3761    3.3974 C   0  0  0  0  0  0  0  0  0  0  0  0
    0.4105   -1.6520    2.6408 H   0  0  0  0  0  0  0  0  0  0  0  0
   -1.0898   -1.8740    3.2449 H   0  0  0  0  0  0  0  0  0  0  0  0
    0.2162   -1.6860    4.3497 H   0  0  0  0  0  0  0  0  0  0  0  0
   -0.4797    0.3888    3.3873 S   0  0  0  0  0  0  0  0  0  0  0  0
   -1.2044    0.6250    5.0619 C   0  0  0  0  0  0  0  0  0  0  0  0
   -1.1637   -0.2424    5.5440 H   0  0  0  0  0  0  0  0  0  0  0  0
   -0.6719    1.3150    5.5380 H   0  0  0  0  0  0  0  0  0  0  0  0
   -2.1460    0.9219    4.9553 H   0  0  0  0  0  0  0  0  0  0  0  0
  1  5  1  0
  5  8  1  0
  1  2  1  0
  1  3  1  0
  1  4  1  0
  5  6  1  0
  5  7  1  0
  8  9  1  0
  8 10  1  0
  8 11  1  0
 12 16  1  0
 16 17  1  0
 12 13  1  0
 12 14  1  0
 12 15  1  0
 17 18  1  0
 17 19  1  0
 17 20  1  0
M  CHG  1   8   1
M  END
>  <PDB_ID>  (181) 
pdb1e0t

>  <RESIDUE_NAME>  (181) 
LYS   MET

>  <FRAG_NAME>  (181) 
ETAM   MSM

>  <FRAG_ATOM_NUM>  (181) 
fragi: 11  fragj: 9

>  <atom.prop.CHAIN_ID>  (181) 
A A A A A A A A A A A Z Z Z Z Z Z Z Z Z

>  <atom.prop.IS_HEAVY_ATOM>  (181) 
1 0 0 0 1 0 0 1 0 0 0 1 0 0 0 1 1 0 0 0

>  <DIFUSE_FUNC_ATOM>  (181) 
n/a

>  <FINAL_SINGLE_POINT_ENERGY>  (181) 
0

>  <NONCOV_INTER_ENERGY_QM>  (181) 
0

>  <FF_Energy>  (181) 
-4.32

>  <QM_Energy>  (181) 
-13.56

>  <source>  (181) 
ETAM_MSM

>  <Index>  (181) 
1016

$$$$
ETAM-pdb1e0t-C-LYS-266:MSM-pdb1e0t-C-MET-262
     RDKit          3D

 20 18  0  0  0  0  0  0  0  0999 V2000
    1.2803    0.7858   -0.0000 C   0  0  0  0  0  0  0  0  0  0  0  0
    1.3098    1.3498    0.8123 H   0  0  0  0  0  0  0  0  0  0  0  0
    1.3180    1.3360   -0.8209 H   0  0  0  0  0  0  0  0  0  0  0  0
    2.1230    0.0945    0.0102 H   0  0  0  0  0  0  0  0  0  0  0  0
    0.0000    0.0000    0.0000 C   0  0  0  0  0  0  0  0  0  0  0  0
    0.0078   -0.6389   -0.8164 H   0  0  0  0  0  0  0  0  0  0  0  0
    0.0074   -0.6381    0.8165 H   0  0  0  0  0  0  0  0  0  0  0  0
   -1.2803    0.7366   -0.0000 N   0  0  0  0  0  4  0  0  0  0  0  0
   -1.3852    1.2295   -0.8656 H   0  0  0  0  0  0  0  0  0  0  0  0
   -2.0400    0.0930    0.1081 H   0  0  0  0  0  0  0  0  0  0  0  0
   -1.2924    1.3917    0.7569 H   0  0  0  0  0  0  0  0  0  0  0  0
   -0.2258   -0.0066    3.8189 C   0  0  0  0  0  0  0  0  0  0  0  0
    0.1923   -0.7339    3.1830 H   0  0  0  0  0  0  0  0  0  0  0  0
   -1.2446   -0.2719    3.8069 H   0  0  0  0  0  0  0  0  0  0  0  0
    0.1525   -0.1905    4.8245 H   0  0  0  0  0  0  0  0  0  0  0  0
    0.0152    1.6067    3.1800 S   0  0  0  0  0  0  0  0  0  0  0  0
   -1.0686    2.6727    4.2501 C   0  0  0  0  0  0  0  0  0  0  0  0
   -0.5745    3.5101    4.4408 H   0  0  0  0  0  0  0  0  0  0  0  0
   -1.9021    2.8565    3.7474 H   0  0  0  0  0  0  0  0  0  0  0  0
   -1.2567    2.1712    5.0832 H   0  0  0  0  0  0  0  0  0  0  0  0
  1  5  1  0
  5  8  1  0
  1  2  1  0
  1  3  1  0
  1  4  1  0
  5  6  1  0
  5  7  1  0
  8  9  1  0
  8 10  1  0
  8 11  1  0
 12 16  1  0
 16 17  1  0
 12 13  1  0
 12 14  1  0
 12 15  1  0
 17 18  1  0
 17 19  1  0
 17 20  1  0
M  CHG  1   8   1
M  END
>  <PDB_ID>  (182) 
pdb1e0t

>  <RESIDUE_NAME>  (182) 
LYS   MET

>  <FRAG_NAME>  (182) 
ETAM   MSM

>  <FRAG_ATOM_NUM>  (182) 
fragi: 11  fragj: 9

>  <atom.prop.CHAIN_ID>  (182) 
A A A A A A A A A A A Z Z Z Z Z Z Z Z Z

>  <atom.prop.IS_HEAVY_ATOM>  (182) 
1 0 0 0 1 0 0 1 0 0 0 1 0 0 0 1 1 0 0 0

>  <DIFUSE_FUNC_ATOM>  (182) 
n/a

>  <FINAL_SINGLE_POINT_ENERGY>  (182) 
0

>  <NONCOV_INTER_ENERGY_QM>  (182) 
0

>  <FF_Energy>  (182) 
-4.07

>  <QM_Energy>  (182) 
-13.44

>  <source>  (182) 
ETAM_MSM

>  <Index>  (182) 
1018

$$$$
ETAM-pdb1e0t-C-LYS-413:MSM-pdb1e0t-C-MET-339
     RDKit          3D

 20 18  0  0  0  0  0  0  0  0999 V2000
    1.2964    0.7977   -0.0000 C   0  0  0  0  0  0  0  0  0  0  0  0
    1.2268    1.5195    0.7173 H   0  0  0  0  0  0  0  0  0  0  0  0
    1.3699    1.2867   -0.8931 H   0  0  0  0  0  0  0  0  0  0  0  0
    2.2270    0.2540    0.1623 H   0  0  0  0  0  0  0  0  0  0  0  0
    0.0000    0.0000    0.0000 C   0  0  0  0  0  0  0  0  0  0  0  0
   -0.0031   -0.6207   -0.8158 H   0  0  0  0  0  0  0  0  0  0  0  0
   -0.0041   -0.6208    0.8159 H   0  0  0  0  0  0  0  0  0  0  0  0
   -1.2964    0.7778    0.0000 N   0  0  0  0  0  4  0  0  0  0  0  0
   -1.5006    1.0588   -0.9337 H   0  0  0  0  0  0  0  0  0  0  0  0
   -2.0211    0.1907    0.3494 H   0  0  0  0  0  0  0  0  0  0  0  0
   -1.1898    1.5771    0.5840 H   0  0  0  0  0  0  0  0  0  0  0  0
   -5.6650   -0.9823   -2.3041 C   0  0  0  0  0  0  0  0  0  0  0  0
   -6.5719   -0.5683   -2.4778 H   0  0  0  0  0  0  0  0  0  0  0  0
   -5.8087   -1.8015   -1.7270 H   0  0  0  0  0  0  0  0  0  0  0  0
   -5.2428   -1.3002   -3.2574 H   0  0  0  0  0  0  0  0  0  0  0  0
   -4.5589    0.1788   -1.5231 S   0  0  0  0  0  0  0  0  0  0  0  0
   -4.5439    1.5179   -2.5578 C   0  0  0  0  0  0  0  0  0  0  0  0
   -4.3852    2.3908   -2.0566 H   0  0  0  0  0  0  0  0  0  0  0  0
   -3.8123    1.4511   -3.2640 H   0  0  0  0  0  0  0  0  0  0  0  0
   -5.4240    1.6264   -3.0594 H   0  0  0  0  0  0  0  0  0  0  0  0
  1  5  1  0
  5  8  1  0
  1  2  1  0
  1  3  1  0
  1  4  1  0
  5  6  1  0
  5  7  1  0
  8  9  1  0
  8 10  1  0
  8 11  1  0
 12 16  1  0
 16 17  1  0
 12 13  1  0
 12 14  1  0
 12 15  1  0
 17 18  1  0
 17 19  1  0
 17 20  1  0
M  CHG  1   8   1
M  END
>  <PDB_ID>  (183) 
pdb1e0t

>  <RESIDUE_NAME>  (183) 
LYS   MET

>  <FRAG_NAME>  (183) 
ETAM   MSM

>  <FRAG_ATOM_NUM>  (183) 
fragi: 11  fragj: 9

>  <atom.prop.CHAIN_ID>  (183) 
A A A A A A A A A A A Z Z Z Z Z Z Z Z Z

>  <atom.prop.IS_HEAVY_ATOM>  (183) 
1 0 0 0 1 0 0 1 0 0 0 1 0 0 0 1 1 0 0 0

>  <DIFUSE_FUNC_ATOM>  (183) 
n/a

>  <FINAL_SINGLE_POINT_ENERGY>  (183) 
0

>  <NONCOV_INTER_ENERGY_QM>  (183) 
0

>  <FF_Energy>  (183) 
-4.67

>  <QM_Energy>  (183) 
-10.57

>  <source>  (183) 
ETAM_MSM

>  <Index>  (183) 
1019

$$$$
ETAM-pdb1e0t-D-LYS-266:MSM-pdb1e0t-D-MET-262
     RDKit          3D

 20 18  0  0  0  0  0  0  0  0999 V2000
    1.1195    0.9989   -0.0000 C   0  0  0  0  0  0  0  0  0  0  0  0
    1.0438    1.5766    0.8097 H   0  0  0  0  0  0  0  0  0  0  0  0
    1.0591    1.5591   -0.8232 H   0  0  0  0  0  0  0  0  0  0  0  0
    2.0962    0.5152    0.0151 H   0  0  0  0  0  0  0  0  0  0  0  0
    0.0000    0.0000    0.0000 C   0  0  0  0  0  0  0  0  0  0  0  0
    0.0182   -0.5019   -0.8162 H   0  0  0  0  0  0  0  0  0  0  0  0
    0.0180   -0.5024    0.8162 H   0  0  0  0  0  0  0  0  0  0  0  0
   -1.1195    0.9322   -0.0000 N   0  0  0  0  0  4  0  0  0  0  0  0
   -1.3681    1.1763    0.9427 H   0  0  0  0  0  0  0  0  0  0  0  0
   -0.8738    1.7707   -0.4964 H   0  0  0  0  0  0  0  0  0  0  0  0
   -1.9181    0.5159   -0.4463 H   0  0  0  0  0  0  0  0  0  0  0  0
   -0.0560   -2.1389    3.0815 C   0  0  0  0  0  0  0  0  0  0  0  0
    0.3566   -2.4230    2.1499 H   0  0  0  0  0  0  0  0  0  0  0  0
   -1.0186   -2.5733    3.0173 H   0  0  0  0  0  0  0  0  0  0  0  0
    0.4926   -2.6710    3.8587 H   0  0  0  0  0  0  0  0  0  0  0  0
   -0.1680   -0.3810    3.2076 S   0  0  0  0  0  0  0  0  0  0  0  0
   -0.9204   -0.2468    4.8869 C   0  0  0  0  0  0  0  0  0  0  0  0
   -1.6417    0.4339    4.8484 H   0  0  0  0  0  0  0  0  0  0  0  0
   -1.2870   -1.1354    5.1330 H   0  0  0  0  0  0  0  0  0  0  0  0
   -0.2098    0.0287    5.5225 H   0  0  0  0  0  0  0  0  0  0  0  0
  1  5  1  0
  5  8  1  0
  1  2  1  0
  1  3  1  0
  1  4  1  0
  5  6  1  0
  5  7  1  0
  8  9  1  0
  8 10  1  0
  8 11  1  0
 12 16  1  0
 16 17  1  0
 12 13  1  0
 12 14  1  0
 12 15  1  0
 17 18  1  0
 17 19  1  0
 17 20  1  0
M  CHG  1   8   1
M  END
>  <PDB_ID>  (184) 
pdb1e0t

>  <RESIDUE_NAME>  (184) 
LYS   MET

>  <FRAG_NAME>  (184) 
ETAM   MSM

>  <FRAG_ATOM_NUM>  (184) 
fragi: 11  fragj: 9

>  <atom.prop.CHAIN_ID>  (184) 
A A A A A A A A A A A Z Z Z Z Z Z Z Z Z

>  <atom.prop.IS_HEAVY_ATOM>  (184) 
1 0 0 0 1 0 0 1 0 0 0 1 0 0 0 1 1 0 0 0

>  <DIFUSE_FUNC_ATOM>  (184) 
n/a

>  <FINAL_SINGLE_POINT_ENERGY>  (184) 
0

>  <NONCOV_INTER_ENERGY_QM>  (184) 
0

>  <FF_Energy>  (184) 
0.45

>  <QM_Energy>  (184) 
-11.6

>  <source>  (184) 
ETAM_MSM

>  <Index>  (184) 
1020

$$$$
ETAM-pdb1e0t-D-LYS-413:MSM-pdb1e0t-D-MET-339
     RDKit          3D

 20 18  0  0  0  0  0  0  0  0999 V2000
    1.3343    0.7426   -0.0000 C   0  0  0  0  0  0  0  0  0  0  0  0
    1.3053    1.4382    0.6923 H   0  0  0  0  0  0  0  0  0  0  0  0
    1.4875    1.1092   -0.8974 H   0  0  0  0  0  0  0  0  0  0  0  0
    2.1222    0.0284    0.2391 H   0  0  0  0  0  0  0  0  0  0  0  0
    0.0000    0.0000    0.0000 C   0  0  0  0  0  0  0  0  0  0  0  0
   -0.0062   -0.6552   -0.8160 H   0  0  0  0  0  0  0  0  0  0  0  0
   -0.0069   -0.6555    0.8162 H   0  0  0  0  0  0  0  0  0  0  0  0
   -1.3343    0.7294    0.0000 N   0  0  0  0  0  4  0  0  0  0  0  0
   -2.0303    0.1143    0.3548 H   0  0  0  0  0  0  0  0  0  0  0  0
   -1.2538    1.5339    0.5789 H   0  0  0  0  0  0  0  0  0  0  0  0
   -1.5487    0.9940   -0.9339 H   0  0  0  0  0  0  0  0  0  0  0  0
   -5.5435    1.7667   -1.8098 C   0  0  0  0  0  0  0  0  0  0  0  0
   -6.2465    2.4846   -1.8199 H   0  0  0  0  0  0  0  0  0  0  0  0
   -5.9588    0.9127   -1.4827 H   0  0  0  0  0  0  0  0  0  0  0  0
   -5.1712    1.6181   -2.8234 H   0  0  0  0  0  0  0  0  0  0  0  0
   -4.1541    2.2380   -0.7956 S   0  0  0  0  0  0  0  0  0  0  0  0
   -3.8099    3.8962   -1.2588 C   0  0  0  0  0  0  0  0  0  0  0  0
   -2.9381    4.2011   -0.8573 H   0  0  0  0  0  0  0  0  0  0  0  0
   -3.7435    3.9765   -2.2609 H   0  0  0  0  0  0  0  0  0  0  0  0
   -4.5396    4.5115   -0.9383 H   0  0  0  0  0  0  0  0  0  0  0  0
  1  5  1  0
  5  8  1  0
  1  2  1  0
  1  3  1  0
  1  4  1  0
  5  6  1  0
  5  7  1  0
  8  9  1  0
  8 10  1  0
  8 11  1  0
 12 16  1  0
 16 17  1  0
 12 13  1  0
 12 14  1  0
 12 15  1  0
 17 18  1  0
 17 19  1  0
 17 20  1  0
M  CHG  1   8   1
M  END
>  <PDB_ID>  (185) 
pdb1e0t

>  <RESIDUE_NAME>  (185) 
LYS   MET

>  <FRAG_NAME>  (185) 
ETAM   MSM

>  <FRAG_ATOM_NUM>  (185) 
fragi: 11  fragj: 9

>  <atom.prop.CHAIN_ID>  (185) 
A A A A A A A A A A A Z Z Z Z Z Z Z Z Z

>  <atom.prop.IS_HEAVY_ATOM>  (185) 
1 0 0 0 1 0 0 1 0 0 0 1 0 0 0 1 1 0 0 0

>  <DIFUSE_FUNC_ATOM>  (185) 
n/a

>  <FINAL_SINGLE_POINT_ENERGY>  (185) 
0

>  <NONCOV_INTER_ENERGY_QM>  (185) 
0

>  <FF_Energy>  (185) 
-4.78

>  <QM_Energy>  (185) 
-13.03

>  <source>  (185) 
ETAM_MSM

>  <Index>  (185) 
1021

$$$$
ETAM-pdb2eky-G-LYS-93:MSM-pdb2eky-H-MET-45
     RDKit          3D

 20 18  0  0  0  0  0  0  0  0999 V2000
    1.2451    0.8776   -0.0000 C   0  0  0  0  0  0  0  0  0  0  0  0
    1.2091    1.4767    0.7957 H   0  0  0  0  0  0  0  0  0  0  0  0
    1.2484    1.4199   -0.8355 H   0  0  0  0  0  0  0  0  0  0  0  0
    2.1601    0.2867    0.0432 H   0  0  0  0  0  0  0  0  0  0  0  0
    0.0000    0.0000    0.0000 C   0  0  0  0  0  0  0  0  0  0  0  0
    0.0113   -0.5792   -0.8158 H   0  0  0  0  0  0  0  0  0  0  0  0
    0.0105   -0.5801    0.8162 H   0  0  0  0  0  0  0  0  0  0  0  0
   -1.2451    0.8215    0.0000 N   0  0  0  0  0  4  0  0  0  0  0  0
   -1.2241    1.4528    0.7744 H   0  0  0  0  0  0  0  0  0  0  0  0
   -1.2995    1.3376   -0.8536 H   0  0  0  0  0  0  0  0  0  0  0  0
   -2.0378    0.2184    0.0792 H   0  0  0  0  0  0  0  0  0  0  0  0
   -2.3553    4.2725   -3.0361 C   0  0  0  0  0  0  0  0  0  0  0  0
   -1.4005    4.1815   -3.3900 H   0  0  0  0  0  0  0  0  0  0  0  0
   -2.6244    5.2455   -3.2010 H   0  0  0  0  0  0  0  0  0  0  0  0
   -3.0061    3.6274   -3.6264 H   0  0  0  0  0  0  0  0  0  0  0  0
   -2.4194    3.8845   -1.2668 S   0  0  0  0  0  0  0  0  0  0  0  0
   -3.9795    4.6730   -0.7794 C   0  0  0  0  0  0  0  0  0  0  0  0
   -4.1718    4.4494    0.1725 H   0  0  0  0  0  0  0  0  0  0  0  0
   -3.8910    5.6603   -0.8862 H   0  0  0  0  0  0  0  0  0  0  0  0
   -4.7118    4.3320   -1.3645 H   0  0  0  0  0  0  0  0  0  0  0  0
  1  5  1  0
  5  8  1  0
  1  2  1  0
  1  3  1  0
  1  4  1  0
  5  6  1  0
  5  7  1  0
  8  9  1  0
  8 10  1  0
  8 11  1  0
 12 16  1  0
 16 17  1  0
 12 13  1  0
 12 14  1  0
 12 15  1  0
 17 18  1  0
 17 19  1  0
 17 20  1  0
M  CHG  1   8   1
M  END
>  <PDB_ID>  (186) 
pdb2eky

>  <RESIDUE_NAME>  (186) 
LYS   MET

>  <FRAG_NAME>  (186) 
ETAM   MSM

>  <FRAG_ATOM_NUM>  (186) 
fragi: 11  fragj: 9

>  <atom.prop.CHAIN_ID>  (186) 
A A A A A A A A A A A Z Z Z Z Z Z Z Z Z

>  <atom.prop.IS_HEAVY_ATOM>  (186) 
1 0 0 0 1 0 0 1 0 0 0 1 0 0 0 1 1 0 0 0

>  <DIFUSE_FUNC_ATOM>  (186) 
n/a

>  <FINAL_SINGLE_POINT_ENERGY>  (186) 
0

>  <NONCOV_INTER_ENERGY_QM>  (186) 
0

>  <FF_Energy>  (186) 
-5.27

>  <QM_Energy>  (186) 
-13.01

>  <source>  (186) 
ETAM_MSM

>  <Index>  (186) 
1025

$$$$
ETAM-pdb2ed6-B-LYS-123:MSM-pdb2ed6-B-MET-91
     RDKit          3D

 20 18  0  0  0  0  0  0  0  0999 V2000
    1.2461    0.8657    0.0000 C   0  0  0  0  0  0  0  0  0  0  0  0
    1.2371    1.4406   -0.8173 H   0  0  0  0  0  0  0  0  0  0  0  0
    2.0489    0.2716   -0.0158 H   0  0  0  0  0  0  0  0  0  0  0  0
    1.3077    1.5104    0.8767 H   0  0  0  0  0  0  0  0  0  0  0  0
    0.0000    0.0000    0.0000 C   0  0  0  0  0  0  0  0  0  0  0  0
    0.0154   -0.5903   -0.8163 H   0  0  0  0  0  0  0  0  0  0  0  0
    0.0140   -0.5906    0.8167 H   0  0  0  0  0  0  0  0  0  0  0  0
   -1.2461    0.8007    0.0000 N   0  0  0  0  0  4  0  0  0  0  0  0
   -1.9610    0.3088    0.4995 H   0  0  0  0  0  0  0  0  0  0  0  0
   -1.0784    1.6821    0.4431 H   0  0  0  0  0  0  0  0  0  0  0  0
   -1.5452    0.9547   -0.9422 H   0  0  0  0  0  0  0  0  0  0  0  0
   -3.4023    3.5203   -1.2112 C   0  0  0  0  0  0  0  0  0  0  0  0
   -3.8853    3.6624   -0.3234 H   0  0  0  0  0  0  0  0  0  0  0  0
   -3.7435    2.6334   -1.5824 H   0  0  0  0  0  0  0  0  0  0  0  0
   -3.7000    4.3158   -1.8943 H   0  0  0  0  0  0  0  0  0  0  0  0
   -1.6140    3.4734   -0.9721 S   0  0  0  0  0  0  0  0  0  0  0  0
   -1.4111    4.7957    0.2936 C   0  0  0  0  0  0  0  0  0  0  0  0
   -0.5092    4.7023    0.6988 H   0  0  0  0  0  0  0  0  0  0  0  0
   -1.5034    5.6746   -0.1586 H   0  0  0  0  0  0  0  0  0  0  0  0
   -2.1181    4.6792    0.9803 H   0  0  0  0  0  0  0  0  0  0  0  0
  1  5  1  0
  5  8  1  0
  1  2  1  0
  1  3  1  0
  1  4  1  0
  5  6  1  0
  5  7  1  0
  8  9  1  0
  8 10  1  0
  8 11  1  0
 12 16  1  0
 16 17  1  0
 12 13  1  0
 12 14  1  0
 12 15  1  0
 17 18  1  0
 17 19  1  0
 17 20  1  0
M  CHG  1   8   1
M  END
>  <PDB_ID>  (187) 
pdb2ed6

>  <RESIDUE_NAME>  (187) 
LYS   MET

>  <FRAG_NAME>  (187) 
ETAM   MSM

>  <FRAG_ATOM_NUM>  (187) 
fragi: 11  fragj: 9

>  <atom.prop.CHAIN_ID>  (187) 
A A A A A A A A A A A Z Z Z Z Z Z Z Z Z

>  <atom.prop.IS_HEAVY_ATOM>  (187) 
1 0 0 0 1 0 0 1 0 0 0 1 0 0 0 1 1 0 0 0

>  <DIFUSE_FUNC_ATOM>  (187) 
n/a

>  <FINAL_SINGLE_POINT_ENERGY>  (187) 
0

>  <NONCOV_INTER_ENERGY_QM>  (187) 
0

>  <FF_Energy>  (187) 
-0.36

>  <QM_Energy>  (187) 
-9.25

>  <source>  (187) 
ETAM_MSM

>  <Index>  (187) 
1029

$$$$
ETAM-pdb2eky-H-LYS-93:MSM-pdb2eky-G-MET-45
     RDKit          3D

 20 18  0  0  0  0  0  0  0  0999 V2000
    1.2514    0.8646   -0.0000 C   0  0  0  0  0  0  0  0  0  0  0  0
    1.2083    1.4908    0.7657 H   0  0  0  0  0  0  0  0  0  0  0  0
    1.3029    1.3540   -0.8594 H   0  0  0  0  0  0  0  0  0  0  0  0
    2.1449    0.2493    0.1047 H   0  0  0  0  0  0  0  0  0  0  0  0
    0.0000    0.0000    0.0000 C   0  0  0  0  0  0  0  0  0  0  0  0
    0.0119   -0.5889   -0.8163 H   0  0  0  0  0  0  0  0  0  0  0  0
    0.0116   -0.5891    0.8161 H   0  0  0  0  0  0  0  0  0  0  0  0
   -1.2514    0.8060    0.0000 N   0  0  0  0  0  4  0  0  0  0  0  0
   -1.6305    0.8293    0.9244 H   0  0  0  0  0  0  0  0  0  0  0  0
   -1.0464    1.7370   -0.3023 H   0  0  0  0  0  0  0  0  0  0  0  0
   -1.9133    0.3904   -0.6234 H   0  0  0  0  0  0  0  0  0  0  0  0
   -2.2021    4.2605   -3.1294 C   0  0  0  0  0  0  0  0  0  0  0  0
   -1.2713    4.0184   -3.4733 H   0  0  0  0  0  0  0  0  0  0  0  0
   -2.3148    5.2618   -3.2979 H   0  0  0  0  0  0  0  0  0  0  0  0
   -2.9387    3.7258   -3.7291 H   0  0  0  0  0  0  0  0  0  0  0  0
   -2.3557    3.8844   -1.3681 S   0  0  0  0  0  0  0  0  0  0  0  0
   -3.8388    4.7871   -0.9592 C   0  0  0  0  0  0  0  0  0  0  0  0
   -3.7129    5.7595   -1.1677 H   0  0  0  0  0  0  0  0  0  0  0  0
   -4.6099    4.4333   -1.4934 H   0  0  0  0  0  0  0  0  0  0  0  0
   -4.0402    4.6845    0.0172 H   0  0  0  0  0  0  0  0  0  0  0  0
  1  5  1  0
  5  8  1  0
  1  2  1  0
  1  3  1  0
  1  4  1  0
  5  6  1  0
  5  7  1  0
  8  9  1  0
  8 10  1  0
  8 11  1  0
 12 16  1  0
 16 17  1  0
 12 13  1  0
 12 14  1  0
 12 15  1  0
 17 18  1  0
 17 19  1  0
 17 20  1  0
M  CHG  1   8   1
M  END
>  <PDB_ID>  (188) 
pdb2eky

>  <RESIDUE_NAME>  (188) 
LYS   MET

>  <FRAG_NAME>  (188) 
ETAM   MSM

>  <FRAG_ATOM_NUM>  (188) 
fragi: 11  fragj: 9

>  <atom.prop.CHAIN_ID>  (188) 
A A A A A A A A A A A Z Z Z Z Z Z Z Z Z

>  <atom.prop.IS_HEAVY_ATOM>  (188) 
1 0 0 0 1 0 0 1 0 0 0 1 0 0 0 1 1 0 0 0

>  <DIFUSE_FUNC_ATOM>  (188) 
n/a

>  <FINAL_SINGLE_POINT_ENERGY>  (188) 
0

>  <NONCOV_INTER_ENERGY_QM>  (188) 
0

>  <FF_Energy>  (188) 
-5.36

>  <QM_Energy>  (188) 
-12.96

>  <source>  (188) 
ETAM_MSM

>  <Index>  (188) 
1032

$$$$
ETAM-pdb2eq7-B-LYS-84:MSM-pdb2eq7-B-MET-81
     RDKit          3D

 20 18  0  0  0  0  0  0  0  0999 V2000
    1.2454    0.8775    0.0000 C   0  0  0  0  0  0  0  0  0  0  0  0
    1.1400    1.5763    0.6972 H   0  0  0  0  0  0  0  0  0  0  0  0
    1.3427    1.2896   -0.8980 H   0  0  0  0  0  0  0  0  0  0  0  0
    2.1395    0.2937    0.2190 H   0  0  0  0  0  0  0  0  0  0  0  0
    0.0000    0.0000    0.0000 C   0  0  0  0  0  0  0  0  0  0  0  0
    0.0125   -0.5808   -0.8160 H   0  0  0  0  0  0  0  0  0  0  0  0
    0.0124   -0.5807    0.8162 H   0  0  0  0  0  0  0  0  0  0  0  0
   -1.2454    0.8190   -0.0000 N   0  0  0  0  0  4  0  0  0  0  0  0
   -1.8477    0.5040   -0.7318 H   0  0  0  0  0  0  0  0  0  0  0  0
   -1.7068    0.7191    0.8809 H   0  0  0  0  0  0  0  0  0  0  0  0
   -1.0097    1.7781   -0.1485 H   0  0  0  0  0  0  0  0  0  0  0  0
   -1.6740   -0.9096   -4.6647 C   0  0  0  0  0  0  0  0  0  0  0  0
   -1.2158   -0.8175   -5.5718 H   0  0  0  0  0  0  0  0  0  0  0  0
   -2.6772   -0.9098   -4.8513 H   0  0  0  0  0  0  0  0  0  0  0  0
   -1.3990   -1.8713   -4.2315 H   0  0  0  0  0  0  0  0  0  0  0  0
   -1.2275    0.4754   -3.5815 S   0  0  0  0  0  0  0  0  0  0  0  0
   -1.4201    1.8599   -4.6837 C   0  0  0  0  0  0  0  0  0  0  0  0
   -1.4799    1.5362   -5.6314 H   0  0  0  0  0  0  0  0  0  0  0  0
   -2.2576    2.3638   -4.4558 H   0  0  0  0  0  0  0  0  0  0  0  0
   -0.6335    2.4765   -4.5976 H   0  0  0  0  0  0  0  0  0  0  0  0
  1  5  1  0
  5  8  1  0
  1  2  1  0
  1  3  1  0
  1  4  1  0
  5  6  1  0
  5  7  1  0
  8  9  1  0
  8 10  1  0
  8 11  1  0
 12 16  1  0
 16 17  1  0
 12 13  1  0
 12 14  1  0
 12 15  1  0
 17 18  1  0
 17 19  1  0
 17 20  1  0
M  CHG  1   8   1
M  END
>  <PDB_ID>  (189) 
pdb2eq7

>  <RESIDUE_NAME>  (189) 
LYS   MET

>  <FRAG_NAME>  (189) 
ETAM   MSM

>  <FRAG_ATOM_NUM>  (189) 
fragi: 11  fragj: 9

>  <atom.prop.CHAIN_ID>  (189) 
A A A A A A A A A A A Z Z Z Z Z Z Z Z Z

>  <atom.prop.IS_HEAVY_ATOM>  (189) 
1 0 0 0 1 0 0 1 0 0 0 1 0 0 0 1 1 0 0 0

>  <DIFUSE_FUNC_ATOM>  (189) 
n/a

>  <FINAL_SINGLE_POINT_ENERGY>  (189) 
0

>  <NONCOV_INTER_ENERGY_QM>  (189) 
0

>  <FF_Energy>  (189) 
-5.66

>  <QM_Energy>  (189) 
-13.83

>  <source>  (189) 
ETAM_MSM

>  <Index>  (189) 
1037

$$$$
ETAM-pdb2ed6-C-LYS-123:MSM-pdb2ed6-C-MET-91
     RDKit          3D

 20 18  0  0  0  0  0  0  0  0999 V2000
    1.2450    0.8701    0.0000 C   0  0  0  0  0  0  0  0  0  0  0  0
    1.2324    1.4454   -0.8178 H   0  0  0  0  0  0  0  0  0  0  0  0
    2.0482    0.2769   -0.0191 H   0  0  0  0  0  0  0  0  0  0  0  0
    1.3060    1.5133    0.8779 H   0  0  0  0  0  0  0  0  0  0  0  0
    0.0000    0.0000    0.0000 C   0  0  0  0  0  0  0  0  0  0  0  0
    0.0180   -0.5900   -0.8166 H   0  0  0  0  0  0  0  0  0  0  0  0
    0.0173   -0.5898    0.8159 H   0  0  0  0  0  0  0  0  0  0  0  0
   -1.2450    0.7979   -0.0000 N   0  0  0  0  0  4  0  0  0  0  0  0
   -1.0200    1.7733   -0.0167 H   0  0  0  0  0  0  0  0  0  0  0  0
   -1.7897    0.5703   -0.8081 H   0  0  0  0  0  0  0  0  0  0  0  0
   -1.7750    0.5941    0.8246 H   0  0  0  0  0  0  0  0  0  0  0  0
   -3.4254    3.4984   -1.2032 C   0  0  0  0  0  0  0  0  0  0  0  0
   -3.8900    3.6258   -0.3109 H   0  0  0  0  0  0  0  0  0  0  0  0
   -3.7146    2.5955   -1.5655 H   0  0  0  0  0  0  0  0  0  0  0  0
   -3.7478    4.2812   -1.8897 H   0  0  0  0  0  0  0  0  0  0  0  0
   -1.6061    3.5312   -0.9753 S   0  0  0  0  0  0  0  0  0  0  0  0
   -1.4446    4.7461    0.3316 C   0  0  0  0  0  0  0  0  0  0  0  0
   -2.1852    5.4154    0.2602 H   0  0  0  0  0  0  0  0  0  0  0  0
   -1.4936    4.2904    1.2215 H   0  0  0  0  0  0  0  0  0  0  0  0
   -0.5645    5.2146    0.2466 H   0  0  0  0  0  0  0  0  0  0  0  0
  1  5  1  0
  5  8  1  0
  1  2  1  0
  1  3  1  0
  1  4  1  0
  5  6  1  0
  5  7  1  0
  8  9  1  0
  8 10  1  0
  8 11  1  0
 12 16  1  0
 16 17  1  0
 12 13  1  0
 12 14  1  0
 12 15  1  0
 17 18  1  0
 17 19  1  0
 17 20  1  0
M  CHG  1   8   1
M  END
>  <PDB_ID>  (190) 
pdb2ed6

>  <RESIDUE_NAME>  (190) 
LYS   MET

>  <FRAG_NAME>  (190) 
ETAM   MSM

>  <FRAG_ATOM_NUM>  (190) 
fragi: 11  fragj: 9

>  <atom.prop.CHAIN_ID>  (190) 
A A A A A A A A A A A Z Z Z Z Z Z Z Z Z

>  <atom.prop.IS_HEAVY_ATOM>  (190) 
1 0 0 0 1 0 0 1 0 0 0 1 0 0 0 1 1 0 0 0

>  <DIFUSE_FUNC_ATOM>  (190) 
n/a

>  <FINAL_SINGLE_POINT_ENERGY>  (190) 
0

>  <NONCOV_INTER_ENERGY_QM>  (190) 
0

>  <FF_Energy>  (190) 
-1.99

>  <QM_Energy>  (190) 
-12.12

>  <source>  (190) 
ETAM_MSM

>  <Index>  (190) 
1038

$$$$
ETAM-pdb1e39-A-LYS-96:MSM-pdb1e39-A-MET-79
     RDKit          3D

 20 18  0  0  0  0  0  0  0  0999 V2000
    1.2447    0.8815    0.0000 C   0  0  0  0  0  0  0  0  0  0  0  0
    1.2620    1.4027    0.8402 H   0  0  0  0  0  0  0  0  0  0  0  0
    1.2115    1.4737   -0.7911 H   0  0  0  0  0  0  0  0  0  0  0  0
    2.1422    0.2652   -0.0538 H   0  0  0  0  0  0  0  0  0  0  0  0
    0.0000    0.0000    0.0000 C   0  0  0  0  0  0  0  0  0  0  0  0
    0.0116   -0.5772   -0.8166 H   0  0  0  0  0  0  0  0  0  0  0  0
    0.0113   -0.5773    0.8169 H   0  0  0  0  0  0  0  0  0  0  0  0
   -1.2447    0.8243   -0.0000 N   0  0  0  0  0  4  0  0  0  0  0  0
   -1.3728    1.2269   -0.9053 H   0  0  0  0  0  0  0  0  0  0  0  0
   -2.0253    0.2427    0.2229 H   0  0  0  0  0  0  0  0  0  0  0  0
   -1.1597    1.5496    0.6824 H   0  0  0  0  0  0  0  0  0  0  0  0
    1.6622   -2.0670    2.8753 C   0  0  0  0  0  0  0  0  0  0  0  0
    2.4273   -1.4190    2.6581 H   0  0  0  0  0  0  0  0  0  0  0  0
    1.1512   -2.1928    1.9953 H   0  0  0  0  0  0  0  0  0  0  0  0
    2.0931   -3.0252    3.1658 H   0  0  0  0  0  0  0  0  0  0  0  0
    0.5935   -1.3923    4.1447 S   0  0  0  0  0  0  0  0  0  0  0  0
   -0.6680   -0.5691    3.1789 C   0  0  0  0  0  0  0  0  0  0  0  0
   -1.4431   -1.1878    3.0401 H   0  0  0  0  0  0  0  0  0  0  0  0
   -0.9809    0.2504    3.6622 H   0  0  0  0  0  0  0  0  0  0  0  0
   -0.2921   -0.3050    2.2889 H   0  0  0  0  0  0  0  0  0  0  0  0
  1  5  1  0
  5  8  1  0
  1  2  1  0
  1  3  1  0
  1  4  1  0
  5  6  1  0
  5  7  1  0
  8  9  1  0
  8 10  1  0
  8 11  1  0
 12 16  1  0
 16 17  1  0
 12 13  1  0
 12 14  1  0
 12 15  1  0
 17 18  1  0
 17 19  1  0
 17 20  1  0
M  CHG  1   8   1
M  END
>  <PDB_ID>  (191) 
pdb1e39

>  <RESIDUE_NAME>  (191) 
LYS   MET

>  <FRAG_NAME>  (191) 
ETAM   MSM

>  <FRAG_ATOM_NUM>  (191) 
fragi: 11  fragj: 9

>  <atom.prop.CHAIN_ID>  (191) 
A A A A A A A A A A A Z Z Z Z Z Z Z Z Z

>  <atom.prop.IS_HEAVY_ATOM>  (191) 
1 0 0 0 1 0 0 1 0 0 0 1 0 0 0 1 1 0 0 0

>  <DIFUSE_FUNC_ATOM>  (191) 
n/a

>  <FINAL_SINGLE_POINT_ENERGY>  (191) 
0

>  <NONCOV_INTER_ENERGY_QM>  (191) 
0

>  <FF_Energy>  (191) 
28.24

>  <QM_Energy>  (191) 
5.25

>  <source>  (191) 
ETAM_MSM

>  <Index>  (191) 
1039

$$$$
ETAM-pdb2ed6-D-LYS-123:MSM-pdb2ed6-D-MET-91
     RDKit          3D

 20 18  0  0  0  0  0  0  0  0999 V2000
    1.2465    0.8700    0.0000 C   0  0  0  0  0  0  0  0  0  0  0  0
    1.2285    1.4534   -0.8104 H   0  0  0  0  0  0  0  0  0  0  0  0
    2.0493    0.2771   -0.0299 H   0  0  0  0  0  0  0  0  0  0  0  0
    1.3141    1.5046    0.8836 H   0  0  0  0  0  0  0  0  0  0  0  0
    0.0000    0.0000    0.0000 C   0  0  0  0  0  0  0  0  0  0  0  0
    0.0162   -0.5886   -0.8164 H   0  0  0  0  0  0  0  0  0  0  0  0
    0.0153   -0.5886    0.8164 H   0  0  0  0  0  0  0  0  0  0  0  0
   -1.2465    0.8022   -0.0000 N   0  0  0  0  0  4  0  0  0  0  0  0
   -1.9500    0.3274   -0.5293 H   0  0  0  0  0  0  0  0  0  0  0  0
   -1.5648    0.9256    0.9400 H   0  0  0  0  0  0  0  0  0  0  0  0
   -1.0689    1.6971   -0.4113 H   0  0  0  0  0  0  0  0  0  0  0  0
   -3.3897    3.5418   -1.2033 C   0  0  0  0  0  0  0  0  0  0  0  0
   -3.8712    3.6996   -0.3235 H   0  0  0  0  0  0  0  0  0  0  0  0
   -3.6911    2.6365   -1.5499 H   0  0  0  0  0  0  0  0  0  0  0  0
   -3.6899    4.3118   -1.9140 H   0  0  0  0  0  0  0  0  0  0  0  0
   -1.5955    3.5646   -0.9603 S   0  0  0  0  0  0  0  0  0  0  0  0
   -1.4137    4.7811    0.3152 C   0  0  0  0  0  0  0  0  0  0  0  0
   -0.8247    4.4280    1.0475 H   0  0  0  0  0  0  0  0  0  0  0  0
   -1.0003    5.6155   -0.0598 H   0  0  0  0  0  0  0  0  0  0  0  0
   -2.3108    5.0107    0.7035 H   0  0  0  0  0  0  0  0  0  0  0  0
  1  5  1  0
  5  8  1  0
  1  2  1  0
  1  3  1  0
  1  4  1  0
  5  6  1  0
  5  7  1  0
  8  9  1  0
  8 10  1  0
  8 11  1  0
 12 16  1  0
 16 17  1  0
 12 13  1  0
 12 14  1  0
 12 15  1  0
 17 18  1  0
 17 19  1  0
 17 20  1  0
M  CHG  1   8   1
M  END
>  <PDB_ID>  (192) 
pdb2ed6

>  <RESIDUE_NAME>  (192) 
LYS   MET

>  <FRAG_NAME>  (192) 
ETAM   MSM

>  <FRAG_ATOM_NUM>  (192) 
fragi: 11  fragj: 9

>  <atom.prop.CHAIN_ID>  (192) 
A A A A A A A A A A A Z Z Z Z Z Z Z Z Z

>  <atom.prop.IS_HEAVY_ATOM>  (192) 
1 0 0 0 1 0 0 1 0 0 0 1 0 0 0 1 1 0 0 0

>  <DIFUSE_FUNC_ATOM>  (192) 
n/a

>  <FINAL_SINGLE_POINT_ENERGY>  (192) 
0

>  <NONCOV_INTER_ENERGY_QM>  (192) 
0

>  <FF_Energy>  (192) 
-2.61

>  <QM_Energy>  (192) 
-13.35

>  <source>  (192) 
ETAM_MSM

>  <Index>  (192) 
1045

$$$$
ETAM-pdb2ewg-B-LYS-278:MSM-pdb2ewg-B-MET-179
     RDKit          3D

 20 18  0  0  0  0  0  0  0  0999 V2000
    1.2508    0.8675    0.0000 C   0  0  0  0  0  0  0  0  0  0  0  0
    1.1804    1.5253    0.7371 H   0  0  0  0  0  0  0  0  0  0  0  0
    1.3226    1.3195   -0.8774 H   0  0  0  0  0  0  0  0  0  0  0  0
    2.1387    0.2549    0.1568 H   0  0  0  0  0  0  0  0  0  0  0  0
    0.0000    0.0000    0.0000 C   0  0  0  0  0  0  0  0  0  0  0  0
    0.0132   -0.5881   -0.8164 H   0  0  0  0  0  0  0  0  0  0  0  0
    0.0134   -0.5890    0.8165 H   0  0  0  0  0  0  0  0  0  0  0  0
   -1.2508    0.8054    0.0000 N   0  0  0  0  0  4  0  0  0  0  0  0
   -1.9149    0.3869    0.6195 H   0  0  0  0  0  0  0  0  0  0  0  0
   -1.0466    1.7349    0.3061 H   0  0  0  0  0  0  0  0  0  0  0  0
   -1.6282    0.8331   -0.9258 H   0  0  0  0  0  0  0  0  0  0  0  0
   -2.4644    1.8759   -3.9945 C   0  0  0  0  0  0  0  0  0  0  0  0
   -2.1709    0.9444   -4.3111 H   0  0  0  0  0  0  0  0  0  0  0  0
   -1.5965    2.4132   -3.8887 H   0  0  0  0  0  0  0  0  0  0  0  0
   -3.0623    2.3352   -4.7816 H   0  0  0  0  0  0  0  0  0  0  0  0
   -3.3418    1.7683   -2.4225 S   0  0  0  0  0  0  0  0  0  0  0  0
   -3.7143    0.0160   -2.3488 C   0  0  0  0  0  0  0  0  0  0  0  0
   -4.6900   -0.1261   -2.5185 H   0  0  0  0  0  0  0  0  0  0  0  0
   -3.1821   -0.4686   -3.0439 H   0  0  0  0  0  0  0  0  0  0  0  0
   -3.4786   -0.3387   -1.4431 H   0  0  0  0  0  0  0  0  0  0  0  0
  1  5  1  0
  5  8  1  0
  1  2  1  0
  1  3  1  0
  1  4  1  0
  5  6  1  0
  5  7  1  0
  8  9  1  0
  8 10  1  0
  8 11  1  0
 12 16  1  0
 16 17  1  0
 12 13  1  0
 12 14  1  0
 12 15  1  0
 17 18  1  0
 17 19  1  0
 17 20  1  0
M  CHG  1   8   1
M  END
>  <PDB_ID>  (193) 
pdb2ewg

>  <RESIDUE_NAME>  (193) 
LYS   MET

>  <FRAG_NAME>  (193) 
ETAM   MSM

>  <FRAG_ATOM_NUM>  (193) 
fragi: 11  fragj: 9

>  <atom.prop.CHAIN_ID>  (193) 
A A A A A A A A A A A Z Z Z Z Z Z Z Z Z

>  <atom.prop.IS_HEAVY_ATOM>  (193) 
1 0 0 0 1 0 0 1 0 0 0 1 0 0 0 1 1 0 0 0

>  <DIFUSE_FUNC_ATOM>  (193) 
n/a

>  <FINAL_SINGLE_POINT_ENERGY>  (193) 
0

>  <NONCOV_INTER_ENERGY_QM>  (193) 
0

>  <FF_Energy>  (193) 
-4.09

>  <QM_Energy>  (193) 
-12.4

>  <source>  (193) 
ETAM_MSM

>  <Index>  (193) 
1047

$$$$
ETAM-pdb1e6y-E-LYS-5115:MSM-pdb1e6y-E-MET-5037
     RDKit          3D

 20 18  0  0  0  0  0  0  0  0999 V2000
    1.2641    0.8547    0.0000 C   0  0  0  0  0  0  0  0  0  0  0  0
    1.1582    1.5719    0.6722 H   0  0  0  0  0  0  0  0  0  0  0  0
    1.3913    1.2266   -0.9066 H   0  0  0  0  0  0  0  0  0  0  0  0
    2.1282    0.2440    0.2616 H   0  0  0  0  0  0  0  0  0  0  0  0
    0.0000    0.0000    0.0000 C   0  0  0  0  0  0  0  0  0  0  0  0
    0.0135   -0.5975   -0.8161 H   0  0  0  0  0  0  0  0  0  0  0  0
    0.0139   -0.5976    0.8168 H   0  0  0  0  0  0  0  0  0  0  0  0
   -1.2641    0.7912   -0.0000 N   0  0  0  0  0  4  0  0  0  0  0  0
   -1.0492    1.7556    0.1477 H   0  0  0  0  0  0  0  0  0  0  0  0
   -1.7234    0.6804   -0.8806 H   0  0  0  0  0  0  0  0  0  0  0  0
   -1.8589    0.4625    0.7326 H   0  0  0  0  0  0  0  0  0  0  0  0
    1.4198   -2.9010   -1.1175 C   0  0  0  0  0  0  0  0  0  0  0  0
    1.0505   -1.9374   -1.1362 H   0  0  0  0  0  0  0  0  0  0  0  0
    1.2679   -3.2187   -0.1482 H   0  0  0  0  0  0  0  0  0  0  0  0
    0.8106   -3.5148   -1.7809 H   0  0  0  0  0  0  0  0  0  0  0  0
    3.1858   -2.9105   -1.5173 S   0  0  0  0  0  0  0  0  0  0  0  0
    3.2010   -1.8617   -2.9701 C   0  0  0  0  0  0  0  0  0  0  0  0
    2.3542   -1.3288   -3.0080 H   0  0  0  0  0  0  0  0  0  0  0  0
    3.9836   -1.2386   -2.9258 H   0  0  0  0  0  0  0  0  0  0  0  0
    3.2738   -2.4278   -3.7921 H   0  0  0  0  0  0  0  0  0  0  0  0
  1  5  1  0
  5  8  1  0
  1  2  1  0
  1  3  1  0
  1  4  1  0
  5  6  1  0
  5  7  1  0
  8  9  1  0
  8 10  1  0
  8 11  1  0
 12 16  1  0
 16 17  1  0
 12 13  1  0
 12 14  1  0
 12 15  1  0
 17 18  1  0
 17 19  1  0
 17 20  1  0
M  CHG  1   8   1
M  END
>  <PDB_ID>  (194) 
pdb1e6y

>  <RESIDUE_NAME>  (194) 
LYS   MET

>  <FRAG_NAME>  (194) 
ETAM   MSM

>  <FRAG_ATOM_NUM>  (194) 
fragi: 11  fragj: 9

>  <atom.prop.CHAIN_ID>  (194) 
A A A A A A A A A A A Z Z Z Z Z Z Z Z Z

>  <atom.prop.IS_HEAVY_ATOM>  (194) 
1 0 0 0 1 0 0 1 0 0 0 1 0 0 0 1 1 0 0 0

>  <DIFUSE_FUNC_ATOM>  (194) 
n/a

>  <FINAL_SINGLE_POINT_ENERGY>  (194) 
0

>  <NONCOV_INTER_ENERGY_QM>  (194) 
0

>  <FF_Energy>  (194) 
6.6

>  <QM_Energy>  (194) 
1.51

>  <source>  (194) 
ETAM_MSM

>  <Index>  (194) 
1060

$$$$
ETAM-pdb1e5m-A-LYS-365:MSM-pdb1e5m-A-MET-32
     RDKit          3D

 20 18  0  0  0  0  0  0  0  0999 V2000
    1.2593    0.8660    0.0000 C   0  0  0  0  0  0  0  0  0  0  0  0
    1.2201    1.4780    0.7790 H   0  0  0  0  0  0  0  0  0  0  0  0
    1.2907    1.3757   -0.8495 H   0  0  0  0  0  0  0  0  0  0  0  0
    2.1565    0.2519    0.0779 H   0  0  0  0  0  0  0  0  0  0  0  0
    0.0000    0.0000    0.0000 C   0  0  0  0  0  0  0  0  0  0  0  0
    0.0159   -0.5919   -0.8166 H   0  0  0  0  0  0  0  0  0  0  0  0
    0.0157   -0.5912    0.8161 H   0  0  0  0  0  0  0  0  0  0  0  0
   -1.2593    0.7973   -0.0000 N   0  0  0  0  0  4  0  0  0  0  0  0
   -1.9661    0.2988    0.5002 H   0  0  0  0  0  0  0  0  0  0  0  0
   -1.0931    1.6777    0.4431 H   0  0  0  0  0  0  0  0  0  0  0  0
   -1.5560    0.9458   -0.9426 H   0  0  0  0  0  0  0  0  0  0  0  0
   -1.1241    0.9783   -4.5460 C   0  0  0  0  0  0  0  0  0  0  0  0
   -0.8760    0.9358   -5.5385 H   0  0  0  0  0  0  0  0  0  0  0  0
   -0.7966    1.8902   -4.2160 H   0  0  0  0  0  0  0  0  0  0  0  0
   -2.2101    0.9463   -4.4588 H   0  0  0  0  0  0  0  0  0  0  0  0
   -0.3140   -0.3585   -3.6297 S   0  0  0  0  0  0  0  0  0  0  0  0
   -0.0724   -1.5694   -4.9347 C   0  0  0  0  0  0  0  0  0  0  0  0
   -0.5354   -1.2605   -5.7654 H   0  0  0  0  0  0  0  0  0  0  0  0
    0.9051   -1.6721   -5.1164 H   0  0  0  0  0  0  0  0  0  0  0  0
   -0.4532   -2.4491   -4.6478 H   0  0  0  0  0  0  0  0  0  0  0  0
  1  5  1  0
  5  8  1  0
  1  2  1  0
  1  3  1  0
  1  4  1  0
  5  6  1  0
  5  7  1  0
  8  9  1  0
  8 10  1  0
  8 11  1  0
 12 16  1  0
 16 17  1  0
 12 13  1  0
 12 14  1  0
 12 15  1  0
 17 18  1  0
 17 19  1  0
 17 20  1  0
M  CHG  1   8   1
M  END
>  <PDB_ID>  (195) 
pdb1e5m

>  <RESIDUE_NAME>  (195) 
LYS   MET

>  <FRAG_NAME>  (195) 
ETAM   MSM

>  <FRAG_ATOM_NUM>  (195) 
fragi: 11  fragj: 9

>  <atom.prop.CHAIN_ID>  (195) 
A A A A A A A A A A A Z Z Z Z Z Z Z Z Z

>  <atom.prop.IS_HEAVY_ATOM>  (195) 
1 0 0 0 1 0 0 1 0 0 0 1 0 0 0 1 1 0 0 0

>  <DIFUSE_FUNC_ATOM>  (195) 
n/a

>  <FINAL_SINGLE_POINT_ENERGY>  (195) 
0

>  <NONCOV_INTER_ENERGY_QM>  (195) 
0

>  <FF_Energy>  (195) 
-4.65

>  <QM_Energy>  (195) 
-10.28

>  <source>  (195) 
ETAM_MSM

>  <Index>  (195) 
1063

$$$$
ETAM-pdb2ed6-G-LYS-123:MSM-pdb2ed6-G-MET-91
     RDKit          3D

 20 18  0  0  0  0  0  0  0  0999 V2000
    1.2533    0.8693   -0.0000 C   0  0  0  0  0  0  0  0  0  0  0  0
    1.2494    1.4354   -0.8217 H   0  0  0  0  0  0  0  0  0  0  0  0
    2.0544    0.2739   -0.0026 H   0  0  0  0  0  0  0  0  0  0  0  0
    1.3116    1.5243    0.8693 H   0  0  0  0  0  0  0  0  0  0  0  0
    0.0000    0.0000    0.0000 C   0  0  0  0  0  0  0  0  0  0  0  0
    0.0174   -0.5898   -0.8159 H   0  0  0  0  0  0  0  0  0  0  0  0
    0.0170   -0.5896    0.8164 H   0  0  0  0  0  0  0  0  0  0  0  0
   -1.2533    0.7990   -0.0000 N   0  0  0  0  0  4  0  0  0  0  0  0
   -1.1901    1.5162   -0.6939 H   0  0  0  0  0  0  0  0  0  0  0  0
   -2.0285    0.2022   -0.2065 H   0  0  0  0  0  0  0  0  0  0  0  0
   -1.3827    1.2147    0.9004 H   0  0  0  0  0  0  0  0  0  0  0  0
   -3.4117    3.4492   -1.2018 C   0  0  0  0  0  0  0  0  0  0  0  0
   -3.8905    3.5853   -0.3102 H   0  0  0  0  0  0  0  0  0  0  0  0
   -3.7238    2.5441   -1.5576 H   0  0  0  0  0  0  0  0  0  0  0  0
   -3.7368    4.2266   -1.8932 H   0  0  0  0  0  0  0  0  0  0  0  0
   -1.5812    3.4263   -0.9379 S   0  0  0  0  0  0  0  0  0  0  0  0
   -1.3953    4.7792    0.2842 C   0  0  0  0  0  0  0  0  0  0  0  0
   -1.9355    4.5541    1.0882 H   0  0  0  0  0  0  0  0  0  0  0  0
   -0.4337    4.8583    0.5222 H   0  0  0  0  0  0  0  0  0  0  0  0
   -1.7215    5.6229   -0.1283 H   0  0  0  0  0  0  0  0  0  0  0  0
  1  5  1  0
  5  8  1  0
  1  2  1  0
  1  3  1  0
  1  4  1  0
  5  6  1  0
  5  7  1  0
  8  9  1  0
  8 10  1  0
  8 11  1  0
 12 16  1  0
 16 17  1  0
 12 13  1  0
 12 14  1  0
 12 15  1  0
 17 18  1  0
 17 19  1  0
 17 20  1  0
M  CHG  1   8   1
M  END
>  <PDB_ID>  (196) 
pdb2ed6

>  <RESIDUE_NAME>  (196) 
LYS   MET

>  <FRAG_NAME>  (196) 
ETAM   MSM

>  <FRAG_ATOM_NUM>  (196) 
fragi: 11  fragj: 9

>  <atom.prop.CHAIN_ID>  (196) 
A A A A A A A A A A A Z Z Z Z Z Z Z Z Z

>  <atom.prop.IS_HEAVY_ATOM>  (196) 
1 0 0 0 1 0 0 1 0 0 0 1 0 0 0 1 1 0 0 0

>  <DIFUSE_FUNC_ATOM>  (196) 
n/a

>  <FINAL_SINGLE_POINT_ENERGY>  (196) 
0

>  <NONCOV_INTER_ENERGY_QM>  (196) 
0

>  <FF_Energy>  (196) 
1.79

>  <QM_Energy>  (196) 
-7.75

>  <source>  (196) 
ETAM_MSM

>  <Index>  (196) 
1079

$$$$
ETAM-pdb1ebb-A-LYS-92:MSM-pdb1ebb-A-MET-100
     RDKit          3D

 20 18  0  0  0  0  0  0  0  0999 V2000
    1.2378    0.8706    0.0000 C   0  0  0  0  0  0  0  0  0  0  0  0
    1.2493    1.4005    0.8397 H   0  0  0  0  0  0  0  0  0  0  0  0
    1.2015    1.4684   -0.7919 H   0  0  0  0  0  0  0  0  0  0  0  0
    2.1338    0.2520   -0.0515 H   0  0  0  0  0  0  0  0  0  0  0  0
    0.0000    0.0000    0.0000 C   0  0  0  0  0  0  0  0  0  0  0  0
    0.0040   -0.5782   -0.8162 H   0  0  0  0  0  0  0  0  0  0  0  0
    0.0042   -0.5790    0.8162 H   0  0  0  0  0  0  0  0  0  0  0  0
   -1.2378    0.8324    0.0000 N   0  0  0  0  0  4  0  0  0  0  0  0
   -1.9112    0.4226    0.6131 H   0  0  0  0  0  0  0  0  0  0  0  0
   -1.0153    1.7543    0.3136 H   0  0  0  0  0  0  0  0  0  0  0  0
   -1.6089    0.8726   -0.9268 H   0  0  0  0  0  0  0  0  0  0  0  0
   -0.8619    5.8366   -1.5726 C   0  0  0  0  0  0  0  0  0  0  0  0
   -1.5455    5.7720   -2.3148 H   0  0  0  0  0  0  0  0  0  0  0  0
    0.0545    5.8597   -1.9990 H   0  0  0  0  0  0  0  0  0  0  0  0
   -1.0229    6.7598   -1.0160 H   0  0  0  0  0  0  0  0  0  0  0  0
   -1.0042    4.4096   -0.4540 S   0  0  0  0  0  0  0  0  0  0  0  0
    0.4654    4.5978    0.5391 C   0  0  0  0  0  0  0  0  0  0  0  0
    0.9693    5.4139    0.2486 H   0  0  0  0  0  0  0  0  0  0  0  0
    0.2126    4.6941    1.5043 H   0  0  0  0  0  0  0  0  0  0  0  0
    1.0533    3.7934    0.4317 H   0  0  0  0  0  0  0  0  0  0  0  0
  1  5  1  0
  5  8  1  0
  1  2  1  0
  1  3  1  0
  1  4  1  0
  5  6  1  0
  5  7  1  0
  8  9  1  0
  8 10  1  0
  8 11  1  0
 12 16  1  0
 16 17  1  0
 12 13  1  0
 12 14  1  0
 12 15  1  0
 17 18  1  0
 17 19  1  0
 17 20  1  0
M  CHG  1   8   1
M  END
>  <PDB_ID>  (197) 
pdb1ebb

>  <RESIDUE_NAME>  (197) 
LYS   MET

>  <FRAG_NAME>  (197) 
ETAM   MSM

>  <FRAG_ATOM_NUM>  (197) 
fragi: 11  fragj: 9

>  <atom.prop.CHAIN_ID>  (197) 
A A A A A A A A A A A Z Z Z Z Z Z Z Z Z

>  <atom.prop.IS_HEAVY_ATOM>  (197) 
1 0 0 0 1 0 0 1 0 0 0 1 0 0 0 1 1 0 0 0

>  <DIFUSE_FUNC_ATOM>  (197) 
n/a

>  <FINAL_SINGLE_POINT_ENERGY>  (197) 
0

>  <NONCOV_INTER_ENERGY_QM>  (197) 
0

>  <FF_Energy>  (197) 
-5.26

>  <QM_Energy>  (197) 
-10.85

>  <source>  (197) 
ETAM_MSM

>  <Index>  (197) 
1082

$$$$
ETAM-pdb2ed6-H-LYS-123:MSM-pdb2ed6-H-MET-91
     RDKit          3D

 20 18  0  0  0  0  0  0  0  0999 V2000
    1.2470    0.8583    0.0000 C   0  0  0  0  0  0  0  0  0  0  0  0
    1.2403    1.4373   -0.8134 H   0  0  0  0  0  0  0  0  0  0  0  0
    2.0482    0.2629   -0.0170 H   0  0  0  0  0  0  0  0  0  0  0  0
    1.3099    1.4991    0.8796 H   0  0  0  0  0  0  0  0  0  0  0  0
    0.0000    0.0000    0.0000 C   0  0  0  0  0  0  0  0  0  0  0  0
    0.0143   -0.5941   -0.8159 H   0  0  0  0  0  0  0  0  0  0  0  0
    0.0137   -0.5942    0.8165 H   0  0  0  0  0  0  0  0  0  0  0  0
   -1.2470    0.7963    0.0000 N   0  0  0  0  0  4  0  0  0  0  0  0
   -1.0264    1.7666    0.1118 H   0  0  0  0  0  0  0  0  0  0  0  0
   -1.7299    0.6641   -0.8668 H   0  0  0  0  0  0  0  0  0  0  0  0
   -1.8339    0.5011    0.7549 H   0  0  0  0  0  0  0  0  0  0  0  0
   -3.3945    3.5271   -1.2257 C   0  0  0  0  0  0  0  0  0  0  0  0
   -3.8706    3.6781   -0.3379 H   0  0  0  0  0  0  0  0  0  0  0  0
   -3.7231    2.6312   -1.5822 H   0  0  0  0  0  0  0  0  0  0  0  0
   -3.6910    4.3124   -1.9210 H   0  0  0  0  0  0  0  0  0  0  0  0
   -1.5962    3.4945   -0.9849 S   0  0  0  0  0  0  0  0  0  0  0  0
   -1.4021    4.7846    0.2953 C   0  0  0  0  0  0  0  0  0  0  0  0
   -1.5889    5.6708   -0.1164 H   0  0  0  0  0  0  0  0  0  0  0  0
   -2.0468    4.6018    1.0308 H   0  0  0  0  0  0  0  0  0  0  0  0
   -0.4690    4.7530    0.6388 H   0  0  0  0  0  0  0  0  0  0  0  0
  1  5  1  0
  5  8  1  0
  1  2  1  0
  1  3  1  0
  1  4  1  0
  5  6  1  0
  5  7  1  0
  8  9  1  0
  8 10  1  0
  8 11  1  0
 12 16  1  0
 16 17  1  0
 12 13  1  0
 12 14  1  0
 12 15  1  0
 17 18  1  0
 17 19  1  0
 17 20  1  0
M  CHG  1   8   1
M  END
>  <PDB_ID>  (198) 
pdb2ed6

>  <RESIDUE_NAME>  (198) 
LYS   MET

>  <FRAG_NAME>  (198) 
ETAM   MSM

>  <FRAG_ATOM_NUM>  (198) 
fragi: 11  fragj: 9

>  <atom.prop.CHAIN_ID>  (198) 
A A A A A A A A A A A Z Z Z Z Z Z Z Z Z

>  <atom.prop.IS_HEAVY_ATOM>  (198) 
1 0 0 0 1 0 0 1 0 0 0 1 0 0 0 1 1 0 0 0

>  <DIFUSE_FUNC_ATOM>  (198) 
n/a

>  <FINAL_SINGLE_POINT_ENERGY>  (198) 
0

>  <NONCOV_INTER_ENERGY_QM>  (198) 
0

>  <FF_Energy>  (198) 
-1.24

>  <QM_Energy>  (198) 
-11.15

>  <source>  (198) 
ETAM_MSM

>  <Index>  (198) 
1092

$$$$
ETAM-pdb2f3k-B-LYS-20:MSM-pdb2f3k-B-MET-36
     RDKit          3D

 20 18  0  0  0  0  0  0  0  0999 V2000
    1.2606    0.8475   -0.0000 C   0  0  0  0  0  0  0  0  0  0  0  0
    2.0397    0.2617    0.2069 H   0  0  0  0  0  0  0  0  0  0  0  0
    1.1699    1.5549    0.6956 H   0  0  0  0  0  0  0  0  0  0  0  0
    1.4308    1.3256   -0.9646 H   0  0  0  0  0  0  0  0  0  0  0  0
    0.0000    0.0000    0.0000 C   0  0  0  0  0  0  0  0  0  0  0  0
   -0.0018   -0.5883   -0.8161 H   0  0  0  0  0  0  0  0  0  0  0  0
   -0.0021   -0.5889    0.8164 H   0  0  0  0  0  0  0  0  0  0  0  0
   -1.2606    0.8244   -0.0000 N   0  0  0  0  0  4  0  0  0  0  0  0
   -1.8467    0.5178    0.7458 H   0  0  0  0  0  0  0  0  0  0  0  0
   -1.0193    1.7834    0.1274 H   0  0  0  0  0  0  0  0  0  0  0  0
   -1.7263    0.7021   -0.8732 H   0  0  0  0  0  0  0  0  0  0  0  0
   -2.6539   -1.9545    3.5924 C   0  0  0  0  0  0  0  0  0  0  0  0
   -2.6009   -1.2869    4.3831 H   0  0  0  0  0  0  0  0  0  0  0  0
   -2.9387   -2.8461    4.0383 H   0  0  0  0  0  0  0  0  0  0  0  0
   -3.4411   -1.6327    2.9107 H   0  0  0  0  0  0  0  0  0  0  0  0
   -1.0309   -2.1355    2.8233 S   0  0  0  0  0  0  0  0  0  0  0  0
   -1.4644   -2.9439    1.2844 C   0  0  0  0  0  0  0  0  0  0  0  0
   -2.3773   -3.3474    1.3630 H   0  0  0  0  0  0  0  0  0  0  0  0
   -1.4610   -2.2741    0.5409 H   0  0  0  0  0  0  0  0  0  0  0  0
   -0.7991   -3.6644    1.0849 H   0  0  0  0  0  0  0  0  0  0  0  0
  1  5  1  0
  5  8  1  0
  1  2  1  0
  1  3  1  0
  1  4  1  0
  5  6  1  0
  5  7  1  0
  8  9  1  0
  8 10  1  0
  8 11  1  0
 12 16  1  0
 16 17  1  0
 12 13  1  0
 12 14  1  0
 12 15  1  0
 17 18  1  0
 17 19  1  0
 17 20  1  0
M  CHG  1   8   1
M  END
>  <PDB_ID>  (199) 
pdb2f3k

>  <RESIDUE_NAME>  (199) 
LYS   MET

>  <FRAG_NAME>  (199) 
ETAM   MSM

>  <FRAG_ATOM_NUM>  (199) 
fragi: 11  fragj: 9

>  <atom.prop.CHAIN_ID>  (199) 
A A A A A A A A A A A Z Z Z Z Z Z Z Z Z

>  <atom.prop.IS_HEAVY_ATOM>  (199) 
1 0 0 0 1 0 0 1 0 0 0 1 0 0 0 1 1 0 0 0

>  <DIFUSE_FUNC_ATOM>  (199) 
n/a

>  <FINAL_SINGLE_POINT_ENERGY>  (199) 
0

>  <NONCOV_INTER_ENERGY_QM>  (199) 
0

>  <FF_Energy>  (199) 
-1.83

>  <QM_Energy>  (199) 
-7.19

>  <source>  (199) 
ETAM_MSM

>  <Index>  (199) 
1093

$$$$
ETAM-pdb1ee0-A-LYS-112:MSM-pdb1ee0-A-MET-109
     RDKit          3D

 20 18  0  0  0  0  0  0  0  0999 V2000
    1.2232    0.8857   -0.0000 C   0  0  0  0  0  0  0  0  0  0  0  0
    1.1776    1.5067    0.7628 H   0  0  0  0  0  0  0  0  0  0  0  0
    1.2836    1.3599   -0.8604 H   0  0  0  0  0  0  0  0  0  0  0  0
    2.1155    0.2702    0.1145 H   0  0  0  0  0  0  0  0  0  0  0  0
    0.0000    0.0000    0.0000 C   0  0  0  0  0  0  0  0  0  0  0  0
   -0.0129   -0.5536   -0.8157 H   0  0  0  0  0  0  0  0  0  0  0  0
   -0.0137   -0.5539    0.8165 H   0  0  0  0  0  0  0  0  0  0  0  0
   -1.2232    0.8915    0.0000 N   0  0  0  0  0  4  0  0  0  0  0  0
   -1.2734    1.3632    0.8748 H   0  0  0  0  0  0  0  0  0  0  0  0
   -1.1382    1.5497   -0.7419 H   0  0  0  0  0  0  0  0  0  0  0  0
   -2.0309    0.3249   -0.1329 H   0  0  0  0  0  0  0  0  0  0  0  0
   -0.7294    0.5030   -5.1961 C   0  0  0  0  0  0  0  0  0  0  0  0
   -1.5177    0.7971   -5.7644 H   0  0  0  0  0  0  0  0  0  0  0  0
   -0.8940   -0.4653   -4.9387 H   0  0  0  0  0  0  0  0  0  0  0  0
    0.1730    0.5515   -5.8055 H   0  0  0  0  0  0  0  0  0  0  0  0
   -0.5911    1.5481   -3.7014 S   0  0  0  0  0  0  0  0  0  0  0  0
   -0.1052    3.0883   -4.5321 C   0  0  0  0  0  0  0  0  0  0  0  0
   -0.0211    2.9159   -5.5102 H   0  0  0  0  0  0  0  0  0  0  0  0
   -0.8046    3.7793   -4.3673 H   0  0  0  0  0  0  0  0  0  0  0  0
    0.7698    3.3928   -4.1626 H   0  0  0  0  0  0  0  0  0  0  0  0
  1  5  1  0
  5  8  1  0
  1  2  1  0
  1  3  1  0
  1  4  1  0
  5  6  1  0
  5  7  1  0
  8  9  1  0
  8 10  1  0
  8 11  1  0
 12 16  1  0
 16 17  1  0
 12 13  1  0
 12 14  1  0
 12 15  1  0
 17 18  1  0
 17 19  1  0
 17 20  1  0
M  CHG  1   8   1
M  END
>  <PDB_ID>  (200) 
pdb1ee0

>  <RESIDUE_NAME>  (200) 
LYS   MET

>  <FRAG_NAME>  (200) 
ETAM   MSM

>  <FRAG_ATOM_NUM>  (200) 
fragi: 11  fragj: 9

>  <atom.prop.CHAIN_ID>  (200) 
A A A A A A A A A A A Z Z Z Z Z Z Z Z Z

>  <atom.prop.IS_HEAVY_ATOM>  (200) 
1 0 0 0 1 0 0 1 0 0 0 1 0 0 0 1 1 0 0 0

>  <DIFUSE_FUNC_ATOM>  (200) 
n/a

>  <FINAL_SINGLE_POINT_ENERGY>  (200) 
0

>  <NONCOV_INTER_ENERGY_QM>  (200) 
0

>  <FF_Energy>  (200) 
-5.42

>  <QM_Energy>  (200) 
-11.91

>  <source>  (200) 
ETAM_MSM

>  <Index>  (200) 
1099

$$$$
ETAM-pdb2ed6-I-LYS-123:MSM-pdb2ed6-I-MET-91
     RDKit          3D

 20 18  0  0  0  0  0  0  0  0999 V2000
    1.2429    0.8653    0.0000 C   0  0  0  0  0  0  0  0  0  0  0  0
    1.2297    1.4479   -0.8128 H   0  0  0  0  0  0  0  0  0  0  0  0
    2.0476    0.2729   -0.0260 H   0  0  0  0  0  0  0  0  0  0  0  0
    1.3111    1.5032    0.8813 H   0  0  0  0  0  0  0  0  0  0  0  0
    0.0000    0.0000    0.0000 C   0  0  0  0  0  0  0  0  0  0  0  0
    0.0136   -0.5896   -0.8158 H   0  0  0  0  0  0  0  0  0  0  0  0
    0.0132   -0.5899    0.8163 H   0  0  0  0  0  0  0  0  0  0  0  0
   -1.2429    0.8030   -0.0000 N   0  0  0  0  0  4  0  0  0  0  0  0
   -1.5726    0.9117   -0.9386 H   0  0  0  0  0  0  0  0  0  0  0  0
   -1.9423    0.3392    0.5451 H   0  0  0  0  0  0  0  0  0  0  0  0
   -1.0599    1.7053    0.3942 H   0  0  0  0  0  0  0  0  0  0  0  0
   -3.4537    3.5324   -1.1282 C   0  0  0  0  0  0  0  0  0  0  0  0
   -3.9585    3.6804   -0.2455 H   0  0  0  0  0  0  0  0  0  0  0  0
   -3.7913    2.6289   -1.4828 H   0  0  0  0  0  0  0  0  0  0  0  0
   -3.7559    4.3102   -1.8294 H   0  0  0  0  0  0  0  0  0  0  0  0
   -1.6804    3.4917   -0.8539 S   0  0  0  0  0  0  0  0  0  0  0  0
   -1.4627    4.7969    0.3048 C   0  0  0  0  0  0  0  0  0  0  0  0
   -2.1363    5.5272    0.1424 H   0  0  0  0  0  0  0  0  0  0  0  0
   -1.5812    4.4568    1.2452 H   0  0  0  0  0  0  0  0  0  0  0  0
   -0.5393    5.1903    0.2222 H   0  0  0  0  0  0  0  0  0  0  0  0
  1  5  1  0
  5  8  1  0
  1  2  1  0
  1  3  1  0
  1  4  1  0
  5  6  1  0
  5  7  1  0
  8  9  1  0
  8 10  1  0
  8 11  1  0
 12 16  1  0
 16 17  1  0
 12 13  1  0
 12 14  1  0
 12 15  1  0
 17 18  1  0
 17 19  1  0
 17 20  1  0
M  CHG  1   8   1
M  END
>  <PDB_ID>  (201) 
pdb2ed6

>  <RESIDUE_NAME>  (201) 
LYS   MET

>  <FRAG_NAME>  (201) 
ETAM   MSM

>  <FRAG_ATOM_NUM>  (201) 
fragi: 11  fragj: 9

>  <atom.prop.CHAIN_ID>  (201) 
A A A A A A A A A A A Z Z Z Z Z Z Z Z Z

>  <atom.prop.IS_HEAVY_ATOM>  (201) 
1 0 0 0 1 0 0 1 0 0 0 1 0 0 0 1 1 0 0 0

>  <DIFUSE_FUNC_ATOM>  (201) 
n/a

>  <FINAL_SINGLE_POINT_ENERGY>  (201) 
0

>  <NONCOV_INTER_ENERGY_QM>  (201) 
0

>  <FF_Energy>  (201) 
-0.14

>  <QM_Energy>  (201) 
-9.18

>  <source>  (201) 
ETAM_MSM

>  <Index>  (201) 
1100

$$$$
ETAM-pdb2f5t-X-LYS-217:MSM-pdb2f5t-X-MET-123
     RDKit          3D

 20 18  0  0  0  0  0  0  0  0999 V2000
    1.3690    0.7391    0.0000 C   0  0  0  0  0  0  0  0  0  0  0  0
    1.4283    1.2776    0.8478 H   0  0  0  0  0  0  0  0  0  0  0  0
    1.3774    1.3719   -0.7824 H   0  0  0  0  0  0  0  0  0  0  0  0
    2.2502    0.1008   -0.0636 H   0  0  0  0  0  0  0  0  0  0  0  0
    0.0000    0.0000    0.0000 C   0  0  0  0  0  0  0  0  0  0  0  0
   -0.0346   -0.6320   -0.8161 H   0  0  0  0  0  0  0  0  0  0  0  0
   -0.0351   -0.6314    0.8160 H   0  0  0  0  0  0  0  0  0  0  0  0
   -1.3690    0.8025   -0.0000 N   0  0  0  0  0  4  0  0  0  0  0  0
   -1.9896    0.3014   -0.5762 H   0  0  0  0  0  0  0  0  0  0  0  0
   -1.6760    0.8372    0.9342 H   0  0  0  0  0  0  0  0  0  0  0  0
   -1.1710    1.6980   -0.3588 H   0  0  0  0  0  0  0  0  0  0  0  0
   -0.3222    1.7664    4.3580 C   0  0  0  0  0  0  0  0  0  0  0  0
   -0.5846    1.8840    5.3386 H   0  0  0  0  0  0  0  0  0  0  0  0
    0.6877    1.9155    4.3156 H   0  0  0  0  0  0  0  0  0  0  0  0
   -0.5318    0.7372    4.0665 H   0  0  0  0  0  0  0  0  0  0  0  0
   -1.1921    3.0094    3.3149 S   0  0  0  0  0  0  0  0  0  0  0  0
   -0.3203    2.9258    1.7851 C   0  0  0  0  0  0  0  0  0  0  0  0
    0.0302    3.8341    1.5314 H   0  0  0  0  0  0  0  0  0  0  0  0
    0.4573    2.2916    1.8592 H   0  0  0  0  0  0  0  0  0  0  0  0
   -0.9290    2.6012    1.0528 H   0  0  0  0  0  0  0  0  0  0  0  0
  1  5  1  0
  5  8  1  0
  1  2  1  0
  1  3  1  0
  1  4  1  0
  5  6  1  0
  5  7  1  0
  8  9  1  0
  8 10  1  0
  8 11  1  0
 12 16  1  0
 16 17  1  0
 12 13  1  0
 12 14  1  0
 12 15  1  0
 17 18  1  0
 17 19  1  0
 17 20  1  0
M  CHG  1   8   1
M  END
>  <PDB_ID>  (202) 
pdb2f5t

>  <RESIDUE_NAME>  (202) 
LYS   MET

>  <FRAG_NAME>  (202) 
ETAM   MSM

>  <FRAG_ATOM_NUM>  (202) 
fragi: 11  fragj: 9

>  <atom.prop.CHAIN_ID>  (202) 
A A A A A A A A A A A Z Z Z Z Z Z Z Z Z

>  <atom.prop.IS_HEAVY_ATOM>  (202) 
1 0 0 0 1 0 0 1 0 0 0 1 0 0 0 1 1 0 0 0

>  <DIFUSE_FUNC_ATOM>  (202) 
n/a

>  <FINAL_SINGLE_POINT_ENERGY>  (202) 
0

>  <NONCOV_INTER_ENERGY_QM>  (202) 
0

>  <FF_Energy>  (202) 
15.05

>  <QM_Energy>  (202) 
4.31

>  <source>  (202) 
ETAM_MSM

>  <Index>  (202) 
1105

$$$$
ETAM-pdb2f6e-A-LYS-123:MSM-pdb2f6e-A-MET-92
     RDKit          3D

 20 18  0  0  0  0  0  0  0  0999 V2000
    1.2279    0.8849   -0.0000 C   0  0  0  0  0  0  0  0  0  0  0  0
    1.2180    1.4463    0.8258 H   0  0  0  0  0  0  0  0  0  0  0  0
    1.1999    1.4714   -0.8073 H   0  0  0  0  0  0  0  0  0  0  0  0
    2.1511    0.3058   -0.0185 H   0  0  0  0  0  0  0  0  0  0  0  0
    0.0000    0.0000    0.0000 C   0  0  0  0  0  0  0  0  0  0  0  0
    0.0107   -0.5734   -0.8161 H   0  0  0  0  0  0  0  0  0  0  0  0
    0.0096   -0.5739    0.8168 H   0  0  0  0  0  0  0  0  0  0  0  0
   -1.2279    0.8321   -0.0000 N   0  0  0  0  0  4  0  0  0  0  0  0
   -0.9806    1.7920    0.1313 H   0  0  0  0  0  0  0  0  0  0  0  0
   -1.7033    0.7266   -0.8746 H   0  0  0  0  0  0  0  0  0  0  0  0
   -1.8301    0.5396    0.7431 H   0  0  0  0  0  0  0  0  0  0  0  0
   -1.0509    1.6784   -4.5899 C   0  0  0  0  0  0  0  0  0  0  0  0
   -1.1470    2.2710   -5.4204 H   0  0  0  0  0  0  0  0  0  0  0  0
   -1.5253    0.8001   -4.8216 H   0  0  0  0  0  0  0  0  0  0  0  0
    0.0078    1.4695   -4.4358 H   0  0  0  0  0  0  0  0  0  0  0  0
   -1.8374    2.4664   -3.1521 S   0  0  0  0  0  0  0  0  0  0  0  0
   -1.3758    4.1689   -3.4042 C   0  0  0  0  0  0  0  0  0  0  0  0
   -0.7121    4.2348   -4.1523 H   0  0  0  0  0  0  0  0  0  0  0  0
   -2.1867    4.7113   -3.6371 H   0  0  0  0  0  0  0  0  0  0  0  0
   -0.9635    4.5375   -2.5678 H   0  0  0  0  0  0  0  0  0  0  0  0
  1  5  1  0
  5  8  1  0
  1  2  1  0
  1  3  1  0
  1  4  1  0
  5  6  1  0
  5  7  1  0
  8  9  1  0
  8 10  1  0
  8 11  1  0
 12 16  1  0
 16 17  1  0
 12 13  1  0
 12 14  1  0
 12 15  1  0
 17 18  1  0
 17 19  1  0
 17 20  1  0
M  CHG  1   8   1
M  END
>  <PDB_ID>  (203) 
pdb2f6e

>  <RESIDUE_NAME>  (203) 
LYS   MET

>  <FRAG_NAME>  (203) 
ETAM   MSM

>  <FRAG_ATOM_NUM>  (203) 
fragi: 11  fragj: 9

>  <atom.prop.CHAIN_ID>  (203) 
A A A A A A A A A A A Z Z Z Z Z Z Z Z Z

>  <atom.prop.IS_HEAVY_ATOM>  (203) 
1 0 0 0 1 0 0 1 0 0 0 1 0 0 0 1 1 0 0 0

>  <DIFUSE_FUNC_ATOM>  (203) 
n/a

>  <FINAL_SINGLE_POINT_ENERGY>  (203) 
0

>  <NONCOV_INTER_ENERGY_QM>  (203) 
0

>  <FF_Energy>  (203) 
-5.28

>  <QM_Energy>  (203) 
-12.8

>  <source>  (203) 
ETAM_MSM

>  <Index>  (203) 
1107

$$$$
ETAM-pdb1eep-A-LYS-220:MSM-pdb1eep-A-MET-283
     RDKit          3D

 20 18  0  0  0  0  0  0  0  0999 V2000
    1.2435    0.8661    0.0000 C   0  0  0  0  0  0  0  0  0  0  0  0
    1.2237    1.4577   -0.8042 H   0  0  0  0  0  0  0  0  0  0  0  0
    2.0472    0.2756   -0.0353 H   0  0  0  0  0  0  0  0  0  0  0  0
    1.3146    1.4940    0.8881 H   0  0  0  0  0  0  0  0  0  0  0  0
    0.0000    0.0000    0.0000 C   0  0  0  0  0  0  0  0  0  0  0  0
    0.0093   -0.5860   -0.8164 H   0  0  0  0  0  0  0  0  0  0  0  0
    0.0095   -0.5858    0.8161 H   0  0  0  0  0  0  0  0  0  0  0  0
   -1.2435    0.8137   -0.0000 N   0  0  0  0  0  4  0  0  0  0  0  0
   -1.9844    0.2888    0.4187 H   0  0  0  0  0  0  0  0  0  0  0  0
   -1.0918    1.6535    0.5227 H   0  0  0  0  0  0  0  0  0  0  0  0
   -1.4893    1.0463   -0.9407 H   0  0  0  0  0  0  0  0  0  0  0  0
    1.2545    2.9709   -4.4956 C   0  0  0  0  0  0  0  0  0  0  0  0
    0.6513    3.7088   -4.8787 H   0  0  0  0  0  0  0  0  0  0  0  0
    1.6800    2.5188   -5.3147 H   0  0  0  0  0  0  0  0  0  0  0  0
    2.0446    3.4401   -3.9093 H   0  0  0  0  0  0  0  0  0  0  0  0
    0.2542    1.7613   -3.5561 S   0  0  0  0  0  0  0  0  0  0  0  0
    0.9670    0.2366   -4.1361 C   0  0  0  0  0  0  0  0  0  0  0  0
    0.3217   -0.2321   -4.7438 H   0  0  0  0  0  0  0  0  0  0  0  0
    1.8136    0.4258   -4.6399 H   0  0  0  0  0  0  0  0  0  0  0  0
    1.1759   -0.3604   -3.3572 H   0  0  0  0  0  0  0  0  0  0  0  0
  1  5  1  0
  5  8  1  0
  1  2  1  0
  1  3  1  0
  1  4  1  0
  5  6  1  0
  5  7  1  0
  8  9  1  0
  8 10  1  0
  8 11  1  0
 12 16  1  0
 16 17  1  0
 12 13  1  0
 12 14  1  0
 12 15  1  0
 17 18  1  0
 17 19  1  0
 17 20  1  0
M  CHG  1   8   1
M  END
>  <PDB_ID>  (204) 
pdb1eep

>  <RESIDUE_NAME>  (204) 
LYS   MET

>  <FRAG_NAME>  (204) 
ETAM   MSM

>  <FRAG_ATOM_NUM>  (204) 
fragi: 11  fragj: 9

>  <atom.prop.CHAIN_ID>  (204) 
A A A A A A A A A A A Z Z Z Z Z Z Z Z Z

>  <atom.prop.IS_HEAVY_ATOM>  (204) 
1 0 0 0 1 0 0 1 0 0 0 1 0 0 0 1 1 0 0 0

>  <DIFUSE_FUNC_ATOM>  (204) 
n/a

>  <FINAL_SINGLE_POINT_ENERGY>  (204) 
0

>  <NONCOV_INTER_ENERGY_QM>  (204) 
0

>  <FF_Energy>  (204) 
-5.0

>  <QM_Energy>  (204) 
-10.18

>  <source>  (204) 
ETAM_MSM

>  <Index>  (204) 
1108

$$$$
ETAM-pdb1eg7-B-LYS-1219:MSM-pdb1eg7-B-MET-1216
     RDKit          3D

 20 18  0  0  0  0  0  0  0  0999 V2000
    1.2378    0.8771    0.0000 C   0  0  0  0  0  0  0  0  0  0  0  0
    1.1463    1.5574    0.7232 H   0  0  0  0  0  0  0  0  0  0  0  0
    1.3083    1.3297   -0.8861 H   0  0  0  0  0  0  0  0  0  0  0  0
    2.1471    0.3017    0.1732 H   0  0  0  0  0  0  0  0  0  0  0  0
    0.0000    0.0000    0.0000 C   0  0  0  0  0  0  0  0  0  0  0  0
    0.0083   -0.5774   -0.8163 H   0  0  0  0  0  0  0  0  0  0  0  0
    0.0081   -0.5772    0.8164 H   0  0  0  0  0  0  0  0  0  0  0  0
   -1.2378    0.8297   -0.0000 N   0  0  0  0  0  4  0  0  0  0  0  0
   -2.0376    0.2311    0.0383 H   0  0  0  0  0  0  0  0  0  0  0  0
   -1.2311    1.4333    0.7970 H   0  0  0  0  0  0  0  0  0  0  0  0
   -1.2692    1.3770   -0.8353 H   0  0  0  0  0  0  0  0  0  0  0  0
   -1.9712   -2.1251   -4.3326 C   0  0  0  0  0  0  0  0  0  0  0  0
   -1.6835   -1.8590   -5.2911 H   0  0  0  0  0  0  0  0  0  0  0  0
   -2.9207   -2.5203   -4.4555 H   0  0  0  0  0  0  0  0  0  0  0  0
   -1.3121   -2.9224   -3.9889 H   0  0  0  0  0  0  0  0  0  0  0  0
   -2.0406   -0.6419   -3.2617 S   0  0  0  0  0  0  0  0  0  0  0  0
   -0.8602    0.4006   -4.1543 C   0  0  0  0  0  0  0  0  0  0  0  0
    0.0427    0.2963   -3.7429 H   0  0  0  0  0  0  0  0  0  0  0  0
   -0.8326    0.1165   -5.1110 H   0  0  0  0  0  0  0  0  0  0  0  0
   -1.1534    1.3523   -4.0914 H   0  0  0  0  0  0  0  0  0  0  0  0
  1  5  1  0
  5  8  1  0
  1  2  1  0
  1  3  1  0
  1  4  1  0
  5  6  1  0
  5  7  1  0
  8  9  1  0
  8 10  1  0
  8 11  1  0
 12 16  1  0
 16 17  1  0
 12 13  1  0
 12 14  1  0
 12 15  1  0
 17 18  1  0
 17 19  1  0
 17 20  1  0
M  CHG  1   8   1
M  END
>  <PDB_ID>  (205) 
pdb1eg7

>  <RESIDUE_NAME>  (205) 
LYS   MET

>  <FRAG_NAME>  (205) 
ETAM   MSM

>  <FRAG_ATOM_NUM>  (205) 
fragi: 11  fragj: 9

>  <atom.prop.CHAIN_ID>  (205) 
A A A A A A A A A A A Z Z Z Z Z Z Z Z Z

>  <atom.prop.IS_HEAVY_ATOM>  (205) 
1 0 0 0 1 0 0 1 0 0 0 1 0 0 0 1 1 0 0 0

>  <DIFUSE_FUNC_ATOM>  (205) 
n/a

>  <FINAL_SINGLE_POINT_ENERGY>  (205) 
0

>  <NONCOV_INTER_ENERGY_QM>  (205) 
0

>  <FF_Energy>  (205) 
-5.1

>  <QM_Energy>  (205) 
-10.14

>  <source>  (205) 
ETAM_MSM

>  <Index>  (205) 
1118

$$$$
ETAM-pdb1ega-B-LYS-111:MSM-pdb1ega-B-MET-107
     RDKit          3D

 20 18  0  0  0  0  0  0  0  0999 V2000
    1.2456    0.8865    0.0000 C   0  0  0  0  0  0  0  0  0  0  0  0
    1.0117    1.7576    0.4167 H   0  0  0  0  0  0  0  0  0  0  0  0
    1.5385    1.0178   -0.9404 H   0  0  0  0  0  0  0  0  0  0  0  0
    2.0607    0.4333    0.5642 H   0  0  0  0  0  0  0  0  0  0  0  0
    0.0000    0.0000    0.0000 C   0  0  0  0  0  0  0  0  0  0  0  0
    0.0131   -0.5748   -0.8166 H   0  0  0  0  0  0  0  0  0  0  0  0
    0.0132   -0.5749    0.8164 H   0  0  0  0  0  0  0  0  0  0  0  0
   -1.2456    0.8261   -0.0000 N   0  0  0  0  0  4  0  0  0  0  0  0
   -1.6886    0.7521   -0.8915 H   0  0  0  0  0  0  0  0  0  0  0  0
   -1.8608    0.4921    0.7118 H   0  0  0  0  0  0  0  0  0  0  0  0
   -1.0078    1.7794    0.1801 H   0  0  0  0  0  0  0  0  0  0  0  0
   -2.8583   -1.1435    2.0827 C   0  0  0  0  0  0  0  0  0  0  0  0
   -3.7036   -1.3216    1.5510 H   0  0  0  0  0  0  0  0  0  0  0  0
   -2.1776   -0.7534    1.4392 H   0  0  0  0  0  0  0  0  0  0  0  0
   -3.0725   -0.4164    2.8661 H   0  0  0  0  0  0  0  0  0  0  0  0
   -2.2368   -2.6672    2.8141 S   0  0  0  0  0  0  0  0  0  0  0  0
   -0.4631   -2.4882    2.5303 C   0  0  0  0  0  0  0  0  0  0  0  0
   -0.0526   -2.0105    3.3057 H   0  0  0  0  0  0  0  0  0  0  0  0
   -0.0521   -3.3937    2.4363 H   0  0  0  0  0  0  0  0  0  0  0  0
   -0.3156   -1.9628    1.6946 H   0  0  0  0  0  0  0  0  0  0  0  0
  1  5  1  0
  5  8  1  0
  1  2  1  0
  1  3  1  0
  1  4  1  0
  5  6  1  0
  5  7  1  0
  8  9  1  0
  8 10  1  0
  8 11  1  0
 12 16  1  0
 16 17  1  0
 12 13  1  0
 12 14  1  0
 12 15  1  0
 17 18  1  0
 17 19  1  0
 17 20  1  0
M  CHG  1   8   1
M  END
>  <PDB_ID>  (206) 
pdb1ega

>  <RESIDUE_NAME>  (206) 
LYS   MET

>  <FRAG_NAME>  (206) 
ETAM   MSM

>  <FRAG_ATOM_NUM>  (206) 
fragi: 11  fragj: 9

>  <atom.prop.CHAIN_ID>  (206) 
A A A A A A A A A A A Z Z Z Z Z Z Z Z Z

>  <atom.prop.IS_HEAVY_ATOM>  (206) 
1 0 0 0 1 0 0 1 0 0 0 1 0 0 0 1 1 0 0 0

>  <DIFUSE_FUNC_ATOM>  (206) 
n/a

>  <FINAL_SINGLE_POINT_ENERGY>  (206) 
0

>  <NONCOV_INTER_ENERGY_QM>  (206) 
0

>  <FF_Energy>  (206) 
13.29

>  <QM_Energy>  (206) 
5.66

>  <source>  (206) 
ETAM_MSM

>  <Index>  (206) 
1123

$$$$
ETAM-pdb2f5z-A-LYS-92:MSM-pdb2f5z-A-MET-89
     RDKit          3D

 20 18  0  0  0  0  0  0  0  0999 V2000
    1.2566    0.8565    0.0000 C   0  0  0  0  0  0  0  0  0  0  0  0
    1.2016    1.5104    0.7385 H   0  0  0  0  0  0  0  0  0  0  0  0
    1.3412    1.3054   -0.8756 H   0  0  0  0  0  0  0  0  0  0  0  0
    2.1396    0.2366    0.1557 H   0  0  0  0  0  0  0  0  0  0  0  0
    0.0000    0.0000    0.0000 C   0  0  0  0  0  0  0  0  0  0  0  0
    0.0103   -0.5931   -0.8165 H   0  0  0  0  0  0  0  0  0  0  0  0
    0.0102   -0.5929    0.8161 H   0  0  0  0  0  0  0  0  0  0  0  0
   -1.2566    0.8023   -0.0000 N   0  0  0  0  0  4  0  0  0  0  0  0
   -1.9298    0.3607   -0.5916 H   0  0  0  0  0  0  0  0  0  0  0  0
   -1.6129    0.8582    0.9319 H   0  0  0  0  0  0  0  0  0  0  0  0
   -1.0614    1.7211   -0.3403 H   0  0  0  0  0  0  0  0  0  0  0  0
   -2.1611   -0.1381   -4.4952 C   0  0  0  0  0  0  0  0  0  0  0  0
   -1.8058    0.0277   -5.4346 H   0  0  0  0  0  0  0  0  0  0  0  0
   -3.1756   -0.0842   -4.5536 H   0  0  0  0  0  0  0  0  0  0  0  0
   -1.8903   -1.1529   -4.2040 H   0  0  0  0  0  0  0  0  0  0  0  0
   -1.5140    1.1075   -3.3311 S   0  0  0  0  0  0  0  0  0  0  0  0
   -1.8223    2.6670   -4.2187 C   0  0  0  0  0  0  0  0  0  0  0  0
   -2.7240    2.6234   -4.6404 H   0  0  0  0  0  0  0  0  0  0  0  0
   -1.7848    3.4201   -3.5679 H   0  0  0  0  0  0  0  0  0  0  0  0
   -1.1218    2.7828   -4.9170 H   0  0  0  0  0  0  0  0  0  0  0  0
  1  5  1  0
  5  8  1  0
  1  2  1  0
  1  3  1  0
  1  4  1  0
  5  6  1  0
  5  7  1  0
  8  9  1  0
  8 10  1  0
  8 11  1  0
 12 16  1  0
 16 17  1  0
 12 13  1  0
 12 14  1  0
 12 15  1  0
 17 18  1  0
 17 19  1  0
 17 20  1  0
M  CHG  1   8   1
M  END
>  <PDB_ID>  (207) 
pdb2f5z

>  <RESIDUE_NAME>  (207) 
LYS   MET

>  <FRAG_NAME>  (207) 
ETAM   MSM

>  <FRAG_ATOM_NUM>  (207) 
fragi: 11  fragj: 9

>  <atom.prop.CHAIN_ID>  (207) 
A A A A A A A A A A A Z Z Z Z Z Z Z Z Z

>  <atom.prop.IS_HEAVY_ATOM>  (207) 
1 0 0 0 1 0 0 1 0 0 0 1 0 0 0 1 1 0 0 0

>  <DIFUSE_FUNC_ATOM>  (207) 
n/a

>  <FINAL_SINGLE_POINT_ENERGY>  (207) 
0

>  <NONCOV_INTER_ENERGY_QM>  (207) 
0

>  <FF_Energy>  (207) 
-5.67

>  <QM_Energy>  (207) 
-14.35

>  <source>  (207) 
ETAM_MSM

>  <Index>  (207) 
1124

$$$$
ETAM-pdb2f7t-A-LYS-158:MSM-pdb2f7t-A-MET-291
     RDKit          3D

 20 18  0  0  0  0  0  0  0  0999 V2000
    1.2533    0.8641    0.0000 C   0  0  0  0  0  0  0  0  0  0  0  0
    1.4239    1.1666   -0.9464 H   0  0  0  0  0  0  0  0  0  0  0  0
    2.0281    0.2892    0.2910 H   0  0  0  0  0  0  0  0  0  0  0  0
    1.1949    1.7390    0.6476 H   0  0  0  0  0  0  0  0  0  0  0  0
    0.0000    0.0000    0.0000 C   0  0  0  0  0  0  0  0  0  0  0  0
   -0.0082   -0.5723   -0.8159 H   0  0  0  0  0  0  0  0  0  0  0  0
   -0.0085   -0.5725    0.8167 H   0  0  0  0  0  0  0  0  0  0  0  0
   -1.2533    0.8570    0.0000 N   0  0  0  0  0  4  0  0  0  0  0  0
   -1.1175    1.6157    0.6281 H   0  0  0  0  0  0  0  0  0  0  0  0
   -1.4062    1.1950   -0.9228 H   0  0  0  0  0  0  0  0  0  0  0  0
   -2.0203    0.2968    0.2944 H   0  0  0  0  0  0  0  0  0  0  0  0
    2.7140   -4.1119   -1.2858 C   0  0  0  0  0  0  0  0  0  0  0  0
    1.9832   -4.3187   -0.5934 H   0  0  0  0  0  0  0  0  0  0  0  0
    3.2459   -4.9860   -1.3847 H   0  0  0  0  0  0  0  0  0  0  0  0
    2.2272   -3.9017   -2.2382 H   0  0  0  0  0  0  0  0  0  0  0  0
    3.7755   -2.7742   -0.7214 S   0  0  0  0  0  0  0  0  0  0  0  0
    2.7808   -2.0091    0.4187 C   0  0  0  0  0  0  0  0  0  0  0  0
    2.0779   -2.6394    0.7990 H   0  0  0  0  0  0  0  0  0  0  0  0
    3.3103   -1.6506    1.2110 H   0  0  0  0  0  0  0  0  0  0  0  0
    2.2793   -1.2179    0.0201 H   0  0  0  0  0  0  0  0  0  0  0  0
  1  5  1  0
  5  8  1  0
  1  2  1  0
  1  3  1  0
  1  4  1  0
  5  6  1  0
  5  7  1  0
  8  9  1  0
  8 10  1  0
  8 11  1  0
 12 16  1  0
 16 17  1  0
 12 13  1  0
 12 14  1  0
 12 15  1  0
 17 18  1  0
 17 19  1  0
 17 20  1  0
M  CHG  1   8   1
M  END
>  <PDB_ID>  (208) 
pdb2f7t

>  <RESIDUE_NAME>  (208) 
LYS   MET

>  <FRAG_NAME>  (208) 
ETAM   MSM

>  <FRAG_ATOM_NUM>  (208) 
fragi: 11  fragj: 9

>  <atom.prop.CHAIN_ID>  (208) 
A A A A A A A A A A A Z Z Z Z Z Z Z Z Z

>  <atom.prop.IS_HEAVY_ATOM>  (208) 
1 0 0 0 1 0 0 1 0 0 0 1 0 0 0 1 1 0 0 0

>  <DIFUSE_FUNC_ATOM>  (208) 
n/a

>  <FINAL_SINGLE_POINT_ENERGY>  (208) 
0

>  <NONCOV_INTER_ENERGY_QM>  (208) 
0

>  <FF_Energy>  (208) 
21.77

>  <QM_Energy>  (208) 
4.86

>  <source>  (208) 
ETAM_MSM

>  <Index>  (208) 
1125

$$$$
ETAM-pdb1eep-B-LYS-220:MSM-pdb1eep-B-MET-283
     RDKit          3D

 20 18  0  0  0  0  0  0  0  0999 V2000
    1.2510    0.8733    0.0000 C   0  0  0  0  0  0  0  0  0  0  0  0
    1.1332    1.5966   -0.6814 H   0  0  0  0  0  0  0  0  0  0  0  0
    2.0348    0.3042   -0.2504 H   0  0  0  0  0  0  0  0  0  0  0  0
    1.4514    1.3359    0.9665 H   0  0  0  0  0  0  0  0  0  0  0  0
    0.0000    0.0000    0.0000 C   0  0  0  0  0  0  0  0  0  0  0  0
    0.0174   -0.5876   -0.8163 H   0  0  0  0  0  0  0  0  0  0  0  0
    0.0174   -0.5871    0.8165 H   0  0  0  0  0  0  0  0  0  0  0  0
   -1.2510    0.8025   -0.0000 N   0  0  0  0  0  4  0  0  0  0  0  0
   -1.1904    1.5120   -0.7015 H   0  0  0  0  0  0  0  0  0  0  0  0
   -2.0286    0.2052   -0.1947 H   0  0  0  0  0  0  0  0  0  0  0  0
   -1.3725    1.2280    0.8967 H   0  0  0  0  0  0  0  0  0  0  0  0
    0.9900    3.5323   -4.1851 C   0  0  0  0  0  0  0  0  0  0  0  0
    0.3803    4.3229   -4.4489 H   0  0  0  0  0  0  0  0  0  0  0  0
    1.3453    3.1696   -5.0844 H   0  0  0  0  0  0  0  0  0  0  0  0
    1.8349    3.9298   -3.6228 H   0  0  0  0  0  0  0  0  0  0  0  0
    0.0516    2.2659   -3.3110 S   0  0  0  0  0  0  0  0  0  0  0  0
    0.7651    0.7694   -4.0448 C   0  0  0  0  0  0  0  0  0  0  0  0
    1.7052    0.6695   -3.7284 H   0  0  0  0  0  0  0  0  0  0  0  0
    0.2252   -0.0200   -3.7618 H   0  0  0  0  0  0  0  0  0  0  0  0
    0.7482    0.8546   -5.0386 H   0  0  0  0  0  0  0  0  0  0  0  0
  1  5  1  0
  5  8  1  0
  1  2  1  0
  1  3  1  0
  1  4  1  0
  5  6  1  0
  5  7  1  0
  8  9  1  0
  8 10  1  0
  8 11  1  0
 12 16  1  0
 16 17  1  0
 12 13  1  0
 12 14  1  0
 12 15  1  0
 17 18  1  0
 17 19  1  0
 17 20  1  0
M  CHG  1   8   1
M  END
>  <PDB_ID>  (209) 
pdb1eep

>  <RESIDUE_NAME>  (209) 
LYS   MET

>  <FRAG_NAME>  (209) 
ETAM   MSM

>  <FRAG_ATOM_NUM>  (209) 
fragi: 11  fragj: 9

>  <atom.prop.CHAIN_ID>  (209) 
A A A A A A A A A A A Z Z Z Z Z Z Z Z Z

>  <atom.prop.IS_HEAVY_ATOM>  (209) 
1 0 0 0 1 0 0 1 0 0 0 1 0 0 0 1 1 0 0 0

>  <DIFUSE_FUNC_ATOM>  (209) 
n/a

>  <FINAL_SINGLE_POINT_ENERGY>  (209) 
0

>  <NONCOV_INTER_ENERGY_QM>  (209) 
0

>  <FF_Energy>  (209) 
-5.23

>  <QM_Energy>  (209) 
-11.03

>  <source>  (209) 
ETAM_MSM

>  <Index>  (209) 
1126

$$$$
ETAM-pdb1egd-C-LYS-254:MSM-pdb1egd-C-MET-106
     RDKit          3D

 20 18  0  0  0  0  0  0  0  0999 V2000
    1.2630    0.8547   -0.0000 C   0  0  0  0  0  0  0  0  0  0  0  0
    1.1818    1.5343    0.7203 H   0  0  0  0  0  0  0  0  0  0  0  0
    1.3452    1.2936   -0.8869 H   0  0  0  0  0  0  0  0  0  0  0  0
    2.1493    0.2466    0.1813 H   0  0  0  0  0  0  0  0  0  0  0  0
    0.0000    0.0000    0.0000 C   0  0  0  0  0  0  0  0  0  0  0  0
    0.0044   -0.5892   -0.8162 H   0  0  0  0  0  0  0  0  0  0  0  0
    0.0041   -0.5888    0.8163 H   0  0  0  0  0  0  0  0  0  0  0  0
   -1.2630    0.8165    0.0000 N   0  0  0  0  0  4  0  0  0  0  0  0
   -1.4385    1.1420   -0.9256 H   0  0  0  0  0  0  0  0  0  0  0  0
   -2.0187    0.2435    0.3086 H   0  0  0  0  0  0  0  0  0  0  0  0
   -1.1478    1.5908    0.6174 H   0  0  0  0  0  0  0  0  0  0  0  0
    0.1936   -2.5759    3.6425 C   0  0  0  0  0  0  0  0  0  0  0  0
    1.1356   -2.2562    3.8514 H   0  0  0  0  0  0  0  0  0  0  0  0
    0.2850   -3.3532    2.9921 H   0  0  0  0  0  0  0  0  0  0  0  0
   -0.2690   -2.9360    4.5615 H   0  0  0  0  0  0  0  0  0  0  0  0
   -0.7865   -1.2576    2.9298 S   0  0  0  0  0  0  0  0  0  0  0  0
   -0.1068    0.1339    3.7659 C   0  0  0  0  0  0  0  0  0  0  0  0
    0.0381    0.8947    3.1228 H   0  0  0  0  0  0  0  0  0  0  0  0
   -0.7285    0.4450    4.4931 H   0  0  0  0  0  0  0  0  0  0  0  0
    0.7776   -0.1041    4.1832 H   0  0  0  0  0  0  0  0  0  0  0  0
  1  5  1  0
  5  8  1  0
  1  2  1  0
  1  3  1  0
  1  4  1  0
  5  6  1  0
  5  7  1  0
  8  9  1  0
  8 10  1  0
  8 11  1  0
 12 16  1  0
 16 17  1  0
 12 13  1  0
 12 14  1  0
 12 15  1  0
 17 18  1  0
 17 19  1  0
 17 20  1  0
M  CHG  1   8   1
M  END
>  <PDB_ID>  (210) 
pdb1egd

>  <RESIDUE_NAME>  (210) 
LYS   MET

>  <FRAG_NAME>  (210) 
ETAM   MSM

>  <FRAG_ATOM_NUM>  (210) 
fragi: 11  fragj: 9

>  <atom.prop.CHAIN_ID>  (210) 
A A A A A A A A A A A Z Z Z Z Z Z Z Z Z

>  <atom.prop.IS_HEAVY_ATOM>  (210) 
1 0 0 0 1 0 0 1 0 0 0 1 0 0 0 1 1 0 0 0

>  <DIFUSE_FUNC_ATOM>  (210) 
n/a

>  <FINAL_SINGLE_POINT_ENERGY>  (210) 
0

>  <NONCOV_INTER_ENERGY_QM>  (210) 
0

>  <FF_Energy>  (210) 
1.78

>  <QM_Energy>  (210) 
-7.47

>  <source>  (210) 
ETAM_MSM

>  <Index>  (210) 
1127

$$$$
ETAM-pdb1e0t-B-LYS-413:MSM-pdb1e0t-B-MET-339
     RDKit          3D

 20 18  0  0  0  0  0  0  0  0999 V2000
    1.2039    0.9279    0.0000 C   0  0  0  0  0  0  0  0  0  0  0  0
    1.0893    1.5987    0.7303 H   0  0  0  0  0  0  0  0  0  0  0  0
    1.2465    1.3939   -0.8823 H   0  0  0  0  0  0  0  0  0  0  0  0
    2.1405    0.3939    0.1605 H   0  0  0  0  0  0  0  0  0  0  0  0
    0.0000    0.0000    0.0000 C   0  0  0  0  0  0  0  0  0  0  0  0
    0.0164   -0.5492   -0.8158 H   0  0  0  0  0  0  0  0  0  0  0  0
    0.0158   -0.5486    0.8161 H   0  0  0  0  0  0  0  0  0  0  0  0
   -1.2039    0.8626   -0.0000 N   0  0  0  0  0  4  0  0  0  0  0  0
   -2.0100    0.3132    0.2229 H   0  0  0  0  0  0  0  0  0  0  0  0
   -1.0971    1.5875    0.6823 H   0  0  0  0  0  0  0  0  0  0  0  0
   -1.3219    1.2736   -0.9054 H   0  0  0  0  0  0  0  0  0  0  0  0
   -5.9101    0.7517   -1.8915 C   0  0  0  0  0  0  0  0  0  0  0  0
   -6.7835    1.2325   -1.9165 H   0  0  0  0  0  0  0  0  0  0  0  0
   -6.0349   -0.1566   -1.4977 H   0  0  0  0  0  0  0  0  0  0  0  0
   -5.5189    0.6579   -2.9046 H   0  0  0  0  0  0  0  0  0  0  0  0
   -4.6894    1.6769   -1.0045 S   0  0  0  0  0  0  0  0  0  0  0  0
   -4.0915    2.9634   -2.0144 C   0  0  0  0  0  0  0  0  0  0  0  0
   -3.1046    2.8518   -2.1942 H   0  0  0  0  0  0  0  0  0  0  0  0
   -4.5708    2.9772   -2.9028 H   0  0  0  0  0  0  0  0  0  0  0  0
   -4.2274    3.8614   -1.5735 H   0  0  0  0  0  0  0  0  0  0  0  0
  1  5  1  0
  5  8  1  0
  1  2  1  0
  1  3  1  0
  1  4  1  0
  5  6  1  0
  5  7  1  0
  8  9  1  0
  8 10  1  0
  8 11  1  0
 12 16  1  0
 16 17  1  0
 12 13  1  0
 12 14  1  0
 12 15  1  0
 17 18  1  0
 17 19  1  0
 17 20  1  0
M  CHG  1   8   1
M  END
>  <PDB_ID>  (211) 
pdb1e0t

>  <RESIDUE_NAME>  (211) 
LYS   MET

>  <FRAG_NAME>  (211) 
ETAM   MSM

>  <FRAG_ATOM_NUM>  (211) 
fragi: 11  fragj: 9

>  <atom.prop.CHAIN_ID>  (211) 
A A A A A A A A A A A Z Z Z Z Z Z Z Z Z

>  <atom.prop.IS_HEAVY_ATOM>  (211) 
1 0 0 0 1 0 0 1 0 0 0 1 0 0 0 1 1 0 0 0

>  <DIFUSE_FUNC_ATOM>  (211) 
n/a

>  <FINAL_SINGLE_POINT_ENERGY>  (211) 
0

>  <NONCOV_INTER_ENERGY_QM>  (211) 
0

>  <FF_Energy>  (211) 
-3.87

>  <QM_Energy>  (211) 
-10.24

>  <source>  (211) 
ETAM_MSM

>  <Index>  (211) 
1133

$$$$
ETAM-pdb2f9z-D-LYS-59:MSM-pdb2f9z-D-MET-46
     RDKit          3D

 20 18  0  0  0  0  0  0  0  0999 V2000
    1.2616    0.8611    0.0000 C   0  0  0  0  0  0  0  0  0  0  0  0
    1.2248    1.4739    0.7773 H   0  0  0  0  0  0  0  0  0  0  0  0
    1.2976    1.3678   -0.8510 H   0  0  0  0  0  0  0  0  0  0  0  0
    2.1545    0.2413    0.0812 H   0  0  0  0  0  0  0  0  0  0  0  0
    0.0000    0.0000    0.0000 C   0  0  0  0  0  0  0  0  0  0  0  0
    0.0161   -0.5944   -0.8166 H   0  0  0  0  0  0  0  0  0  0  0  0
    0.0154   -0.5941    0.8163 H   0  0  0  0  0  0  0  0  0  0  0  0
   -1.2616    0.7930    0.0000 N   0  0  0  0  0  4  0  0  0  0  0  0
   -1.9131    0.3779   -0.6334 H   0  0  0  0  0  0  0  0  0  0  0  0
   -1.6477    0.7999    0.9216 H   0  0  0  0  0  0  0  0  0  0  0  0
   -1.0632    1.7292   -0.2887 H   0  0  0  0  0  0  0  0  0  0  0  0
    1.5507   -3.3472    3.0026 C   0  0  0  0  0  0  0  0  0  0  0  0
    1.2281   -4.1991    2.5411 H   0  0  0  0  0  0  0  0  0  0  0  0
    1.6874   -3.5905    3.9852 H   0  0  0  0  0  0  0  0  0  0  0  0
    2.5110   -3.0594    2.5747 H   0  0  0  0  0  0  0  0  0  0  0  0
    0.3422   -2.0316    2.8334 S   0  0  0  0  0  0  0  0  0  0  0  0
    1.2439   -0.6448    3.5905 C   0  0  0  0  0  0  0  0  0  0  0  0
    0.8936   -0.4980    4.5119 H   0  0  0  0  0  0  0  0  0  0  0  0
    2.2139   -0.8714    3.6243 H   0  0  0  0  0  0  0  0  0  0  0  0
    1.1026    0.1721    3.0365 H   0  0  0  0  0  0  0  0  0  0  0  0
  1  5  1  0
  5  8  1  0
  1  2  1  0
  1  3  1  0
  1  4  1  0
  5  6  1  0
  5  7  1  0
  8  9  1  0
  8 10  1  0
  8 11  1  0
 12 16  1  0
 16 17  1  0
 12 13  1  0
 12 14  1  0
 12 15  1  0
 17 18  1  0
 17 19  1  0
 17 20  1  0
M  CHG  1   8   1
M  END
>  <PDB_ID>  (212) 
pdb2f9z

>  <RESIDUE_NAME>  (212) 
LYS   MET

>  <FRAG_NAME>  (212) 
ETAM   MSM

>  <FRAG_ATOM_NUM>  (212) 
fragi: 11  fragj: 9

>  <atom.prop.CHAIN_ID>  (212) 
A A A A A A A A A A A Z Z Z Z Z Z Z Z Z

>  <atom.prop.IS_HEAVY_ATOM>  (212) 
1 0 0 0 1 0 0 1 0 0 0 1 0 0 0 1 1 0 0 0

>  <DIFUSE_FUNC_ATOM>  (212) 
n/a

>  <FINAL_SINGLE_POINT_ENERGY>  (212) 
0

>  <NONCOV_INTER_ENERGY_QM>  (212) 
0

>  <FF_Energy>  (212) 
-1.3

>  <QM_Energy>  (212) 
-7.24

>  <source>  (212) 
ETAM_MSM

>  <Index>  (212) 
1138

$$$$
ETAM-pdb1efu-B-LYS-206:MSM-pdb1efu-B-MET-214
     RDKit          3D

 20 18  0  0  0  0  0  0  0  0999 V2000
    1.2616    0.8513    0.0000 C   0  0  0  0  0  0  0  0  0  0  0  0
    1.1598    1.5650   -0.6918 H   0  0  0  0  0  0  0  0  0  0  0  0
    2.0363    0.2653   -0.2338 H   0  0  0  0  0  0  0  0  0  0  0  0
    1.4461    1.3178    0.9677 H   0  0  0  0  0  0  0  0  0  0  0  0
    0.0000    0.0000    0.0000 C   0  0  0  0  0  0  0  0  0  0  0  0
    0.0114   -0.5970   -0.8158 H   0  0  0  0  0  0  0  0  0  0  0  0
    0.0114   -0.5978    0.8165 H   0  0  0  0  0  0  0  0  0  0  0  0
   -1.2616    0.7942    0.0000 N   0  0  0  0  0  4  0  0  0  0  0  0
   -1.0467    1.7553   -0.1664 H   0  0  0  0  0  0  0  0  0  0  0  0
   -1.8650    0.4550   -0.7204 H   0  0  0  0  0  0  0  0  0  0  0  0
   -1.7113    0.6992    0.8865 H   0  0  0  0  0  0  0  0  0  0  0  0
    2.4680   -2.6369   -3.2245 C   0  0  0  0  0  0  0  0  0  0  0  0
    2.2621   -3.5704   -3.5879 H   0  0  0  0  0  0  0  0  0  0  0  0
    3.4557   -2.6490   -2.9599 H   0  0  0  0  0  0  0  0  0  0  0  0
    2.3383   -1.9184   -4.0338 H   0  0  0  0  0  0  0  0  0  0  0  0
    1.4314   -2.2366   -1.8419 S   0  0  0  0  0  0  0  0  0  0  0  0
   -0.1883   -2.4001   -2.6157 C   0  0  0  0  0  0  0  0  0  0  0  0
   -0.8951   -2.3785   -1.9101 H   0  0  0  0  0  0  0  0  0  0  0  0
   -0.3269   -1.6439   -3.2539 H   0  0  0  0  0  0  0  0  0  0  0  0
   -0.2323   -3.2677   -3.1093 H   0  0  0  0  0  0  0  0  0  0  0  0
  1  5  1  0
  5  8  1  0
  1  2  1  0
  1  3  1  0
  1  4  1  0
  5  6  1  0
  5  7  1  0
  8  9  1  0
  8 10  1  0
  8 11  1  0
 12 16  1  0
 16 17  1  0
 12 13  1  0
 12 14  1  0
 12 15  1  0
 17 18  1  0
 17 19  1  0
 17 20  1  0
M  CHG  1   8   1
M  END
>  <PDB_ID>  (213) 
pdb1efu

>  <RESIDUE_NAME>  (213) 
LYS   MET

>  <FRAG_NAME>  (213) 
ETAM   MSM

>  <FRAG_ATOM_NUM>  (213) 
fragi: 11  fragj: 9

>  <atom.prop.CHAIN_ID>  (213) 
A A A A A A A A A A A Z Z Z Z Z Z Z Z Z

>  <atom.prop.IS_HEAVY_ATOM>  (213) 
1 0 0 0 1 0 0 1 0 0 0 1 0 0 0 1 1 0 0 0

>  <DIFUSE_FUNC_ATOM>  (213) 
n/a

>  <FINAL_SINGLE_POINT_ENERGY>  (213) 
0

>  <NONCOV_INTER_ENERGY_QM>  (213) 
0

>  <FF_Energy>  (213) 
3.29

>  <QM_Energy>  (213) 
-5.21

>  <source>  (213) 
ETAM_MSM

>  <Index>  (213) 
1145

$$$$
ETAM-pdb1ej1-A-LYS-49:MSM-pdb1ej1-A-MET-86
     RDKit          3D

 20 18  0  0  0  0  0  0  0  0999 V2000
    1.2855    0.8243   -0.0000 C   0  0  0  0  0  0  0  0  0  0  0  0
    1.2359    1.4880    0.7321 H   0  0  0  0  0  0  0  0  0  0  0  0
    1.3771    1.2662   -0.8794 H   0  0  0  0  0  0  0  0  0  0  0  0
    2.1504    0.1817    0.1647 H   0  0  0  0  0  0  0  0  0  0  0  0
    0.0000    0.0000    0.0000 C   0  0  0  0  0  0  0  0  0  0  0  0
    0.0047   -0.6100   -0.8163 H   0  0  0  0  0  0  0  0  0  0  0  0
    0.0038   -0.6100    0.8168 H   0  0  0  0  0  0  0  0  0  0  0  0
   -1.2855    0.7844    0.0000 N   0  0  0  0  0  4  0  0  0  0  0  0
   -1.1284    1.6616    0.4462 H   0  0  0  0  0  0  0  0  0  0  0  0
   -1.5763    0.9271   -0.9424 H   0  0  0  0  0  0  0  0  0  0  0  0
   -1.9787    0.2683    0.4969 H   0  0  0  0  0  0  0  0  0  0  0  0
   -4.2356    4.3607   -0.0861 C   0  0  0  0  0  0  0  0  0  0  0  0
   -5.1668    4.6005    0.2624 H   0  0  0  0  0  0  0  0  0  0  0  0
   -4.0190    5.0535   -0.8068 H   0  0  0  0  0  0  0  0  0  0  0  0
   -3.5242    4.4831    0.7305 H   0  0  0  0  0  0  0  0  0  0  0  0
   -4.2111    2.6948   -0.7658 S   0  0  0  0  0  0  0  0  0  0  0  0
   -5.9905    2.2097   -0.5372 C   0  0  0  0  0  0  0  0  0  0  0  0
   -6.2738    1.7108   -1.3448 H   0  0  0  0  0  0  0  0  0  0  0  0
   -6.0475    1.6408    0.2712 H   0  0  0  0  0  0  0  0  0  0  0  0
   -6.5187    3.0402   -0.4271 H   0  0  0  0  0  0  0  0  0  0  0  0
  1  5  1  0
  5  8  1  0
  1  2  1  0
  1  3  1  0
  1  4  1  0
  5  6  1  0
  5  7  1  0
  8  9  1  0
  8 10  1  0
  8 11  1  0
 12 16  1  0
 16 17  1  0
 12 13  1  0
 12 14  1  0
 12 15  1  0
 17 18  1  0
 17 19  1  0
 17 20  1  0
M  CHG  1   8   1
M  END
>  <PDB_ID>  (214) 
pdb1ej1

>  <RESIDUE_NAME>  (214) 
LYS   MET

>  <FRAG_NAME>  (214) 
ETAM   MSM

>  <FRAG_ATOM_NUM>  (214) 
fragi: 11  fragj: 9

>  <atom.prop.CHAIN_ID>  (214) 
A A A A A A A A A A A Z Z Z Z Z Z Z Z Z

>  <atom.prop.IS_HEAVY_ATOM>  (214) 
1 0 0 0 1 0 0 1 0 0 0 1 0 0 0 1 1 0 0 0

>  <DIFUSE_FUNC_ATOM>  (214) 
n/a

>  <FINAL_SINGLE_POINT_ENERGY>  (214) 
0

>  <NONCOV_INTER_ENERGY_QM>  (214) 
0

>  <FF_Energy>  (214) 
-4.69

>  <QM_Energy>  (214) 
-11.58

>  <source>  (214) 
ETAM_MSM

>  <Index>  (214) 
1147

$$$$
ETAM-pdb2f5z-B-LYS-92:MSM-pdb2f5z-B-MET-89
     RDKit          3D

 20 18  0  0  0  0  0  0  0  0999 V2000
    1.2705    0.8602   -0.0000 C   0  0  0  0  0  0  0  0  0  0  0  0
    1.2373    1.4738    0.7876 H   0  0  0  0  0  0  0  0  0  0  0  0
    1.2914    1.3939   -0.8433 H   0  0  0  0  0  0  0  0  0  0  0  0
    2.1868    0.2729    0.0598 H   0  0  0  0  0  0  0  0  0  0  0  0
    0.0000    0.0000    0.0000 C   0  0  0  0  0  0  0  0  0  0  0  0
    0.0002   -0.5823   -0.8162 H   0  0  0  0  0  0  0  0  0  0  0  0
   -0.0005   -0.5822    0.8165 H   0  0  0  0  0  0  0  0  0  0  0  0
   -1.2705    0.8313   -0.0000 N   0  0  0  0  0  4  0  0  0  0  0  0
   -1.9785    0.3280    0.4859 H   0  0  0  0  0  0  0  0  0  0  0  0
   -1.0839    1.6951    0.4568 H   0  0  0  0  0  0  0  0  0  0  0  0
   -1.5439    0.9907   -0.9431 H   0  0  0  0  0  0  0  0  0  0  0  0
   -2.5516   -0.3997   -4.0893 C   0  0  0  0  0  0  0  0  0  0  0  0
   -2.2259   -0.3026   -5.0522 H   0  0  0  0  0  0  0  0  0  0  0  0
   -3.5712   -0.3526   -4.1300 H   0  0  0  0  0  0  0  0  0  0  0  0
   -2.2608   -1.3832   -3.7201 H   0  0  0  0  0  0  0  0  0  0  0  0
   -1.8924    0.9270   -3.0562 S   0  0  0  0  0  0  0  0  0  0  0  0
   -2.0909    2.3720   -4.1074 C   0  0  0  0  0  0  0  0  0  0  0  0
   -1.7701    2.1588   -5.0297 H   0  0  0  0  0  0  0  0  0  0  0  0
   -3.0572    2.6284   -4.1408 H   0  0  0  0  0  0  0  0  0  0  0  0
   -1.5562    3.1301   -3.7342 H   0  0  0  0  0  0  0  0  0  0  0  0
  1  5  1  0
  5  8  1  0
  1  2  1  0
  1  3  1  0
  1  4  1  0
  5  6  1  0
  5  7  1  0
  8  9  1  0
  8 10  1  0
  8 11  1  0
 12 16  1  0
 16 17  1  0
 12 13  1  0
 12 14  1  0
 12 15  1  0
 17 18  1  0
 17 19  1  0
 17 20  1  0
M  CHG  1   8   1
M  END
>  <PDB_ID>  (215) 
pdb2f5z

>  <RESIDUE_NAME>  (215) 
LYS   MET

>  <FRAG_NAME>  (215) 
ETAM   MSM

>  <FRAG_ATOM_NUM>  (215) 
fragi: 11  fragj: 9

>  <atom.prop.CHAIN_ID>  (215) 
A A A A A A A A A A A Z Z Z Z Z Z Z Z Z

>  <atom.prop.IS_HEAVY_ATOM>  (215) 
1 0 0 0 1 0 0 1 0 0 0 1 0 0 0 1 1 0 0 0

>  <DIFUSE_FUNC_ATOM>  (215) 
n/a

>  <FINAL_SINGLE_POINT_ENERGY>  (215) 
0

>  <NONCOV_INTER_ENERGY_QM>  (215) 
0

>  <FF_Energy>  (215) 
-5.46

>  <QM_Energy>  (215) 
-16.5

>  <source>  (215) 
ETAM_MSM

>  <Index>  (215) 
1149

$$$$
ETAM-pdb1ejb-A-LYS-92:MSM-pdb1ejb-A-MET-96
     RDKit          3D

 20 18  0  0  0  0  0  0  0  0999 V2000
    1.2547    0.8787   -0.0000 C   0  0  0  0  0  0  0  0  0  0  0  0
    1.2148    1.4779    0.7840 H   0  0  0  0  0  0  0  0  0  0  0  0
    1.2774    1.3881   -0.8458 H   0  0  0  0  0  0  0  0  0  0  0  0
    2.1451    0.2538    0.0693 H   0  0  0  0  0  0  0  0  0  0  0  0
    0.0000    0.0000    0.0000 C   0  0  0  0  0  0  0  0  0  0  0  0
    0.0214   -0.5874   -0.8158 H   0  0  0  0  0  0  0  0  0  0  0  0
    0.0213   -0.5873    0.8166 H   0  0  0  0  0  0  0  0  0  0  0  0
   -1.2547    0.7965    0.0000 N   0  0  0  0  0  4  0  0  0  0  0  0
   -1.9818    0.2727   -0.4449 H   0  0  0  0  0  0  0  0  0  0  0  0
   -1.5190    1.0001    0.9422 H   0  0  0  0  0  0  0  0  0  0  0  0
   -1.1061    1.6504   -0.4975 H   0  0  0  0  0  0  0  0  0  0  0  0
   -5.6426    3.3085    0.0896 C   0  0  0  0  0  0  0  0  0  0  0  0
   -5.9915    2.7263    0.8536 H   0  0  0  0  0  0  0  0  0  0  0  0
   -6.4667    3.6322   -0.4200 H   0  0  0  0  0  0  0  0  0  0  0  0
   -5.1423    4.1757    0.5205 H   0  0  0  0  0  0  0  0  0  0  0  0
   -4.5493    2.3638   -0.9905 S   0  0  0  0  0  0  0  0  0  0  0  0
   -4.4738    3.4071   -2.4377 C   0  0  0  0  0  0  0  0  0  0  0  0
   -4.7878    4.3302   -2.2064 H   0  0  0  0  0  0  0  0  0  0  0  0
   -3.5310    3.4544   -2.7722 H   0  0  0  0  0  0  0  0  0  0  0  0
   -5.0595    3.0301   -3.1573 H   0  0  0  0  0  0  0  0  0  0  0  0
  1  5  1  0
  5  8  1  0
  1  2  1  0
  1  3  1  0
  1  4  1  0
  5  6  1  0
  5  7  1  0
  8  9  1  0
  8 10  1  0
  8 11  1  0
 12 16  1  0
 16 17  1  0
 12 13  1  0
 12 14  1  0
 12 15  1  0
 17 18  1  0
 17 19  1  0
 17 20  1  0
M  CHG  1   8   1
M  END
>  <PDB_ID>  (216) 
pdb1ejb

>  <RESIDUE_NAME>  (216) 
LYS   MET

>  <FRAG_NAME>  (216) 
ETAM   MSM

>  <FRAG_ATOM_NUM>  (216) 
fragi: 11  fragj: 9

>  <atom.prop.CHAIN_ID>  (216) 
A A A A A A A A A A A Z Z Z Z Z Z Z Z Z

>  <atom.prop.IS_HEAVY_ATOM>  (216) 
1 0 0 0 1 0 0 1 0 0 0 1 0 0 0 1 1 0 0 0

>  <DIFUSE_FUNC_ATOM>  (216) 
n/a

>  <FINAL_SINGLE_POINT_ENERGY>  (216) 
0

>  <NONCOV_INTER_ENERGY_QM>  (216) 
0

>  <FF_Energy>  (216) 
-4.41

>  <QM_Energy>  (216) 
-10.64

>  <source>  (216) 
ETAM_MSM

>  <Index>  (216) 
1158

$$$$
ETAM-pdb1efu-C-LYS-263:MSM-pdb1efu-C-MET-260
     RDKit          3D

 20 18  0  0  0  0  0  0  0  0999 V2000
    1.2490    0.8756    0.0000 C   0  0  0  0  0  0  0  0  0  0  0  0
    1.3078    1.3416    0.8785 H   0  0  0  0  0  0  0  0  0  0  0  0
    1.1680    1.5402   -0.7371 H   0  0  0  0  0  0  0  0  0  0  0  0
    2.1559    0.2897   -0.1502 H   0  0  0  0  0  0  0  0  0  0  0  0
    0.0000    0.0000    0.0000 C   0  0  0  0  0  0  0  0  0  0  0  0
    0.0118   -0.5810   -0.8158 H   0  0  0  0  0  0  0  0  0  0  0  0
    0.0108   -0.5813    0.8165 H   0  0  0  0  0  0  0  0  0  0  0  0
   -1.2490    0.8189   -0.0000 N   0  0  0  0  0  4  0  0  0  0  0  0
   -1.0547    1.7149   -0.3960 H   0  0  0  0  0  0  0  0  0  0  0  0
   -1.9462    0.3548   -0.5431 H   0  0  0  0  0  0  0  0  0  0  0  0
   -1.5706    0.9280    0.9386 H   0  0  0  0  0  0  0  0  0  0  0  0
    2.2555    0.5927   -4.6897 C   0  0  0  0  0  0  0  0  0  0  0  0
    2.8232    1.2489   -4.1370 H   0  0  0  0  0  0  0  0  0  0  0  0
    2.6068    0.6832   -5.6527 H   0  0  0  0  0  0  0  0  0  0  0  0
    2.4661   -0.4187   -4.3420 H   0  0  0  0  0  0  0  0  0  0  0  0
    0.5079    1.0329   -4.6034 S   0  0  0  0  0  0  0  0  0  0  0  0
    0.4547    1.9593   -3.0995 C   0  0  0  0  0  0  0  0  0  0  0  0
    0.8969    2.8531   -3.2256 H   0  0  0  0  0  0  0  0  0  0  0  0
   -0.4976    2.1089   -2.8166 H   0  0  0  0  0  0  0  0  0  0  0  0
    0.9332    1.4630   -2.3682 H   0  0  0  0  0  0  0  0  0  0  0  0
  1  5  1  0
  5  8  1  0
  1  2  1  0
  1  3  1  0
  1  4  1  0
  5  6  1  0
  5  7  1  0
  8  9  1  0
  8 10  1  0
  8 11  1  0
 12 16  1  0
 16 17  1  0
 12 13  1  0
 12 14  1  0
 12 15  1  0
 17 18  1  0
 17 19  1  0
 17 20  1  0
M  CHG  1   8   1
M  END
>  <PDB_ID>  (217) 
pdb1efu

>  <RESIDUE_NAME>  (217) 
LYS   MET

>  <FRAG_NAME>  (217) 
ETAM   MSM

>  <FRAG_ATOM_NUM>  (217) 
fragi: 11  fragj: 9

>  <atom.prop.CHAIN_ID>  (217) 
A A A A A A A A A A A Z Z Z Z Z Z Z Z Z

>  <atom.prop.IS_HEAVY_ATOM>  (217) 
1 0 0 0 1 0 0 1 0 0 0 1 0 0 0 1 1 0 0 0

>  <DIFUSE_FUNC_ATOM>  (217) 
n/a

>  <FINAL_SINGLE_POINT_ENERGY>  (217) 
0

>  <NONCOV_INTER_ENERGY_QM>  (217) 
0

>  <FF_Energy>  (217) 
9.6

>  <QM_Energy>  (217) 
1.61

>  <source>  (217) 
ETAM_MSM

>  <Index>  (217) 
1159

$$$$
ETAM-pdb1el1-A-LYS-96:MSM-pdb1el1-A-MET-17
     RDKit          3D

 20 18  0  0  0  0  0  0  0  0999 V2000
    1.2451    0.8503    0.0000 C   0  0  0  0  0  0  0  0  0  0  0  0
    1.2549    1.4119    0.8178 H   0  0  0  0  0  0  0  0  0  0  0  0
    1.2521    1.4161   -0.8150 H   0  0  0  0  0  0  0  0  0  0  0  0
    2.1393    0.2268   -0.0024 H   0  0  0  0  0  0  0  0  0  0  0  0
    0.0000    0.0000    0.0000 C   0  0  0  0  0  0  0  0  0  0  0  0
    0.0074   -0.5950   -0.8157 H   0  0  0  0  0  0  0  0  0  0  0  0
    0.0072   -0.5942    0.8164 H   0  0  0  0  0  0  0  0  0  0  0  0
   -1.2451    0.8037   -0.0000 N   0  0  0  0  0  4  0  0  0  0  0  0
   -1.4487    1.1051    0.9323 H   0  0  0  0  0  0  0  0  0  0  0  0
   -1.1273    1.6039   -0.5899 H   0  0  0  0  0  0  0  0  0  0  0  0
   -2.0029    0.2474   -0.3428 H   0  0  0  0  0  0  0  0  0  0  0  0
   -0.8947   -4.4445   -1.4273 C   0  0  0  0  0  0  0  0  0  0  0  0
   -1.8651   -4.1700   -1.2412 H   0  0  0  0  0  0  0  0  0  0  0  0
   -0.7012   -5.2234   -0.7893 H   0  0  0  0  0  0  0  0  0  0  0  0
   -0.8284   -4.8103   -2.4519 H   0  0  0  0  0  0  0  0  0  0  0  0
    0.2262   -3.0727   -1.1167 S   0  0  0  0  0  0  0  0  0  0  0  0
    1.6489   -3.9747   -0.4236 C   0  0  0  0  0  0  0  0  0  0  0  0
    1.6434   -4.9052   -0.7800 H   0  0  0  0  0  0  0  0  0  0  0  0
    2.4864   -3.5086   -0.6943 H   0  0  0  0  0  0  0  0  0  0  0  0
    1.5684   -3.9871    0.5695 H   0  0  0  0  0  0  0  0  0  0  0  0
  1  5  1  0
  5  8  1  0
  1  2  1  0
  1  3  1  0
  1  4  1  0
  5  6  1  0
  5  7  1  0
  8  9  1  0
  8 10  1  0
  8 11  1  0
 12 16  1  0
 16 17  1  0
 12 13  1  0
 12 14  1  0
 12 15  1  0
 17 18  1  0
 17 19  1  0
 17 20  1  0
M  CHG  1   8   1
M  END
>  <PDB_ID>  (218) 
pdb1el1

>  <RESIDUE_NAME>  (218) 
LYS   MET

>  <FRAG_NAME>  (218) 
ETAM   MSM

>  <FRAG_ATOM_NUM>  (218) 
fragi: 11  fragj: 9

>  <atom.prop.CHAIN_ID>  (218) 
A A A A A A A A A A A Z Z Z Z Z Z Z Z Z

>  <atom.prop.IS_HEAVY_ATOM>  (218) 
1 0 0 0 1 0 0 1 0 0 0 1 0 0 0 1 1 0 0 0

>  <DIFUSE_FUNC_ATOM>  (218) 
n/a

>  <FINAL_SINGLE_POINT_ENERGY>  (218) 
0

>  <NONCOV_INTER_ENERGY_QM>  (218) 
0

>  <FF_Energy>  (218) 
-1.42

>  <QM_Energy>  (218) 
-7.0

>  <source>  (218) 
ETAM_MSM

>  <Index>  (218) 
1166

$$$$
ETAM-pdb2fep-A-LYS-308:MSM-pdb2fep-S-MET-48
     RDKit          3D

 20 18  0  0  0  0  0  0  0  0999 V2000
    1.2205    0.8795    0.0000 C   0  0  0  0  0  0  0  0  0  0  0  0
    1.2369    1.4144    0.8395 H   0  0  0  0  0  0  0  0  0  0  0  0
    1.1871    1.4829   -0.7909 H   0  0  0  0  0  0  0  0  0  0  0  0
    2.1364    0.2909   -0.0521 H   0  0  0  0  0  0  0  0  0  0  0  0
    0.0000    0.0000    0.0000 C   0  0  0  0  0  0  0  0  0  0  0  0
    0.0094   -0.5763   -0.8157 H   0  0  0  0  0  0  0  0  0  0  0  0
    0.0084   -0.5763    0.8161 H   0  0  0  0  0  0  0  0  0  0  0  0
   -1.2205    0.8304    0.0000 N   0  0  0  0  0  4  0  0  0  0  0  0
   -1.6172    0.8470    0.9191 H   0  0  0  0  0  0  0  0  0  0  0  0
   -0.9932    1.7654   -0.2782 H   0  0  0  0  0  0  0  0  0  0  0  0
   -1.8889    0.4482   -0.6413 H   0  0  0  0  0  0  0  0  0  0  0  0
   -1.6401    0.2003    4.2158 C   0  0  0  0  0  0  0  0  0  0  0  0
   -1.4983    0.3164    5.2299 H   0  0  0  0  0  0  0  0  0  0  0  0
   -1.2663   -0.7371    4.0034 H   0  0  0  0  0  0  0  0  0  0  0  0
   -2.7120    0.1957    4.0180 H   0  0  0  0  0  0  0  0  0  0  0  0
   -0.7145    1.4731    3.2980 S   0  0  0  0  0  0  0  0  0  0  0  0
   -1.0438    2.9154    4.2760 C   0  0  0  0  0  0  0  0  0  0  0  0
   -0.1821    3.3177    4.5978 H   0  0  0  0  0  0  0  0  0  0  0  0
   -1.5365    3.5980    3.7288 H   0  0  0  0  0  0  0  0  0  0  0  0
   -1.6048    2.6710    5.0718 H   0  0  0  0  0  0  0  0  0  0  0  0
  1  5  1  0
  5  8  1  0
  1  2  1  0
  1  3  1  0
  1  4  1  0
  5  6  1  0
  5  7  1  0
  8  9  1  0
  8 10  1  0
  8 11  1  0
 12 16  1  0
 16 17  1  0
 12 13  1  0
 12 14  1  0
 12 15  1  0
 17 18  1  0
 17 19  1  0
 17 20  1  0
M  CHG  1   8   1
M  END
>  <PDB_ID>  (219) 
pdb2fep

>  <RESIDUE_NAME>  (219) 
LYS   MET

>  <FRAG_NAME>  (219) 
ETAM   MSM

>  <FRAG_ATOM_NUM>  (219) 
fragi: 11  fragj: 9

>  <atom.prop.CHAIN_ID>  (219) 
A A A A A A A A A A A Z Z Z Z Z Z Z Z Z

>  <atom.prop.IS_HEAVY_ATOM>  (219) 
1 0 0 0 1 0 0 1 0 0 0 1 0 0 0 1 1 0 0 0

>  <DIFUSE_FUNC_ATOM>  (219) 
n/a

>  <FINAL_SINGLE_POINT_ENERGY>  (219) 
0

>  <NONCOV_INTER_ENERGY_QM>  (219) 
0

>  <FF_Energy>  (219) 
-5.9

>  <QM_Energy>  (219) 
-15.43

>  <source>  (219) 
ETAM_MSM

>  <Index>  (219) 
1174

$$$$
ETAM-pdb2faf-B-LYS-175:MSM-pdb2faf-B-MET-273
     RDKit          3D

 20 18  0  0  0  0  0  0  0  0999 V2000
    1.2394    0.8643   -0.0000 C   0  0  0  0  0  0  0  0  0  0  0  0
    1.1881    1.4990    0.7634 H   0  0  0  0  0  0  0  0  0  0  0  0
    1.2854    1.3595   -0.8609 H   0  0  0  0  0  0  0  0  0  0  0  0
    2.1398    0.2592    0.1063 H   0  0  0  0  0  0  0  0  0  0  0  0
    0.0000    0.0000    0.0000 C   0  0  0  0  0  0  0  0  0  0  0  0
   -0.0052   -0.5749   -0.8167 H   0  0  0  0  0  0  0  0  0  0  0  0
   -0.0045   -0.5750    0.8167 H   0  0  0  0  0  0  0  0  0  0  0  0
   -1.2394    0.8489    0.0000 N   0  0  0  0  0  4  0  0  0  0  0  0
   -2.0237    0.2789    0.2331 H   0  0  0  0  0  0  0  0  0  0  0  0
   -1.1353    1.5758    0.6746 H   0  0  0  0  0  0  0  0  0  0  0  0
   -1.3636    1.2425   -0.9076 H   0  0  0  0  0  0  0  0  0  0  0  0
   -0.4007   -1.3688    5.5262 C   0  0  0  0  0  0  0  0  0  0  0  0
   -1.1096   -0.6657    5.6856 H   0  0  0  0  0  0  0  0  0  0  0  0
   -0.1031   -1.7162    6.4280 H   0  0  0  0  0  0  0  0  0  0  0  0
   -0.8248   -2.1860    4.9427 H   0  0  0  0  0  0  0  0  0  0  0  0
    1.0041   -0.6562    4.6308 S   0  0  0  0  0  0  0  0  0  0  0  0
    0.1316    0.2334    3.3755 C   0  0  0  0  0  0  0  0  0  0  0  0
   -0.8598    0.1530    3.5180 H   0  0  0  0  0  0  0  0  0  0  0  0
    0.3829    1.2060    3.4010 H   0  0  0  0  0  0  0  0  0  0  0  0
    0.3579   -0.1349    2.4680 H   0  0  0  0  0  0  0  0  0  0  0  0
  1  5  1  0
  5  8  1  0
  1  2  1  0
  1  3  1  0
  1  4  1  0
  5  6  1  0
  5  7  1  0
  8  9  1  0
  8 10  1  0
  8 11  1  0
 12 16  1  0
 16 17  1  0
 12 13  1  0
 12 14  1  0
 12 15  1  0
 17 18  1  0
 17 19  1  0
 17 20  1  0
M  CHG  1   8   1
M  END
>  <PDB_ID>  (220) 
pdb2faf

>  <RESIDUE_NAME>  (220) 
LYS   MET

>  <FRAG_NAME>  (220) 
ETAM   MSM

>  <FRAG_ATOM_NUM>  (220) 
fragi: 11  fragj: 9

>  <atom.prop.CHAIN_ID>  (220) 
A A A A A A A A A A A Z Z Z Z Z Z Z Z Z

>  <atom.prop.IS_HEAVY_ATOM>  (220) 
1 0 0 0 1 0 0 1 0 0 0 1 0 0 0 1 1 0 0 0

>  <DIFUSE_FUNC_ATOM>  (220) 
n/a

>  <FINAL_SINGLE_POINT_ENERGY>  (220) 
0

>  <NONCOV_INTER_ENERGY_QM>  (220) 
0

>  <FF_Energy>  (220) 
6.46

>  <QM_Energy>  (220) 
1.24

>  <source>  (220) 
ETAM_MSM

>  <Index>  (220) 
1176

$$$$
ETAM-pdb2ff3-B-LYS-291:MSM-pdb2ff3-B-MET-325
     RDKit          3D

 20 18  0  0  0  0  0  0  0  0999 V2000
    1.2961    0.8331   -0.0000 C   0  0  0  0  0  0  0  0  0  0  0  0
    2.0678    0.2106    0.0589 H   0  0  0  0  0  0  0  0  0  0  0  0
    1.2766    1.4416    0.7842 H   0  0  0  0  0  0  0  0  0  0  0  0
    1.3979    1.4312   -0.9056 H   0  0  0  0  0  0  0  0  0  0  0  0
    0.0000    0.0000    0.0000 C   0  0  0  0  0  0  0  0  0  0  0  0
    0.0088   -0.6080   -0.8163 H   0  0  0  0  0  0  0  0  0  0  0  0
    0.0091   -0.6081    0.8158 H   0  0  0  0  0  0  0  0  0  0  0  0
   -1.2961    0.7806   -0.0000 N   0  0  0  0  0  4  0  0  0  0  0  0
   -1.8527    0.4752   -0.7667 H   0  0  0  0  0  0  0  0  0  0  0  0
   -1.7708    0.6105    0.8581 H   0  0  0  0  0  0  0  0  0  0  0  0
   -1.0851    1.7490   -0.0916 H   0  0  0  0  0  0  0  0  0  0  0  0
   -3.8721   -0.5613   -3.5067 C   0  0  0  0  0  0  0  0  0  0  0  0
   -4.0346   -0.7156   -4.5167 H   0  0  0  0  0  0  0  0  0  0  0  0
   -4.1148    0.4328   -3.3585 H   0  0  0  0  0  0  0  0  0  0  0  0
   -4.5860   -1.1706   -2.9525 H   0  0  0  0  0  0  0  0  0  0  0  0
   -2.1345   -0.8598   -3.0895 S   0  0  0  0  0  0  0  0  0  0  0  0
   -1.9064   -2.5325   -3.7000 C   0  0  0  0  0  0  0  0  0  0  0  0
   -1.0124   -2.6072   -4.1429 H   0  0  0  0  0  0  0  0  0  0  0  0
   -1.9545   -3.1764   -2.9357 H   0  0  0  0  0  0  0  0  0  0  0  0
   -2.6248   -2.7464   -4.3623 H   0  0  0  0  0  0  0  0  0  0  0  0
  1  5  1  0
  5  8  1  0
  1  2  1  0
  1  3  1  0
  1  4  1  0
  5  6  1  0
  5  7  1  0
  8  9  1  0
  8 10  1  0
  8 11  1  0
 12 16  1  0
 16 17  1  0
 12 13  1  0
 12 14  1  0
 12 15  1  0
 17 18  1  0
 17 19  1  0
 17 20  1  0
M  CHG  1   8   1
M  END
>  <PDB_ID>  (221) 
pdb2ff3

>  <RESIDUE_NAME>  (221) 
LYS   MET

>  <FRAG_NAME>  (221) 
ETAM   MSM

>  <FRAG_ATOM_NUM>  (221) 
fragi: 11  fragj: 9

>  <atom.prop.CHAIN_ID>  (221) 
A A A A A A A A A A A Z Z Z Z Z Z Z Z Z

>  <atom.prop.IS_HEAVY_ATOM>  (221) 
1 0 0 0 1 0 0 1 0 0 0 1 0 0 0 1 1 0 0 0

>  <DIFUSE_FUNC_ATOM>  (221) 
n/a

>  <FINAL_SINGLE_POINT_ENERGY>  (221) 
0

>  <NONCOV_INTER_ENERGY_QM>  (221) 
0

>  <FF_Energy>  (221) 
-5.59

>  <QM_Energy>  (221) 
-14.12

>  <source>  (221) 
ETAM_MSM

>  <Index>  (221) 
1179

$$$$
ETAM-pdb1em6-A-LYS-591:MSM-pdb1em6-A-MET-635
     RDKit          3D

 20 18  0  0  0  0  0  0  0  0999 V2000
    1.2422    0.8781   -0.0000 C   0  0  0  0  0  0  0  0  0  0  0  0
    1.2204    1.4579    0.8077 H   0  0  0  0  0  0  0  0  0  0  0  0
    1.2375    1.4333   -0.8251 H   0  0  0  0  0  0  0  0  0  0  0  0
    2.1529    0.2795    0.0198 H   0  0  0  0  0  0  0  0  0  0  0  0
    0.0000    0.0000    0.0000 C   0  0  0  0  0  0  0  0  0  0  0  0
    0.0137   -0.5811   -0.8159 H   0  0  0  0  0  0  0  0  0  0  0  0
    0.0140   -0.5817    0.8164 H   0  0  0  0  0  0  0  0  0  0  0  0
   -1.2422    0.8155   -0.0000 N   0  0  0  0  0  4  0  0  0  0  0  0
   -1.8590    0.4818    0.7134 H   0  0  0  0  0  0  0  0  0  0  0  0
   -1.0121    1.7725    0.1784 H   0  0  0  0  0  0  0  0  0  0  0  0
   -1.6903    0.7398   -0.8910 H   0  0  0  0  0  0  0  0  0  0  0  0
   -0.5570    3.6434    3.1472 C   0  0  0  0  0  0  0  0  0  0  0  0
    0.3561    4.0630    3.3797 H   0  0  0  0  0  0  0  0  0  0  0  0
   -1.2211    4.0847    3.8017 H   0  0  0  0  0  0  0  0  0  0  0  0
   -0.8230    3.9491    2.1354 H   0  0  0  0  0  0  0  0  0  0  0  0
   -0.5171    1.8528    3.3893 S   0  0  0  0  0  0  0  0  0  0  0  0
   -2.2606    1.4335    3.2934 C   0  0  0  0  0  0  0  0  0  0  0  0
   -2.6081    1.6597    2.3833 H   0  0  0  0  0  0  0  0  0  0  0  0
   -2.3777    0.4541    3.4614 H   0  0  0  0  0  0  0  0  0  0  0  0
   -2.7669    1.9532    3.9822 H   0  0  0  0  0  0  0  0  0  0  0  0
  1  5  1  0
  5  8  1  0
  1  2  1  0
  1  3  1  0
  1  4  1  0
  5  6  1  0
  5  7  1  0
  8  9  1  0
  8 10  1  0
  8 11  1  0
 12 16  1  0
 16 17  1  0
 12 13  1  0
 12 14  1  0
 12 15  1  0
 17 18  1  0
 17 19  1  0
 17 20  1  0
M  CHG  1   8   1
M  END
>  <PDB_ID>  (222) 
pdb1em6

>  <RESIDUE_NAME>  (222) 
LYS   MET

>  <FRAG_NAME>  (222) 
ETAM   MSM

>  <FRAG_ATOM_NUM>  (222) 
fragi: 11  fragj: 9

>  <atom.prop.CHAIN_ID>  (222) 
A A A A A A A A A A A Z Z Z Z Z Z Z Z Z

>  <atom.prop.IS_HEAVY_ATOM>  (222) 
1 0 0 0 1 0 0 1 0 0 0 1 0 0 0 1 1 0 0 0

>  <DIFUSE_FUNC_ATOM>  (222) 
n/a

>  <FINAL_SINGLE_POINT_ENERGY>  (222) 
0

>  <NONCOV_INTER_ENERGY_QM>  (222) 
0

>  <FF_Energy>  (222) 
-3.42

>  <QM_Energy>  (222) 
-8.99

>  <source>  (222) 
ETAM_MSM

>  <Index>  (222) 
1181

$$$$
ETAM-pdb1em6-B-LYS-591:MSM-pdb1em6-B-MET-635
     RDKit          3D

 20 18  0  0  0  0  0  0  0  0999 V2000
    1.2447    0.8779    0.0000 C   0  0  0  0  0  0  0  0  0  0  0  0
    1.2231    1.4582    0.8065 H   0  0  0  0  0  0  0  0  0  0  0  0
    1.2427    1.4299   -0.8270 H   0  0  0  0  0  0  0  0  0  0  0  0
    2.1551    0.2788    0.0223 H   0  0  0  0  0  0  0  0  0  0  0  0
    0.0000    0.0000    0.0000 C   0  0  0  0  0  0  0  0  0  0  0  0
    0.0121   -0.5799   -0.8160 H   0  0  0  0  0  0  0  0  0  0  0  0
    0.0116   -0.5802    0.8170 H   0  0  0  0  0  0  0  0  0  0  0  0
   -1.2447    0.8206    0.0000 N   0  0  0  0  0  4  0  0  0  0  0  0
   -1.7949    0.5860    0.8009 H   0  0  0  0  0  0  0  0  0  0  0  0
   -1.0017    1.7892    0.0322 H   0  0  0  0  0  0  0  0  0  0  0  0
   -1.7648    0.6321   -0.8326 H   0  0  0  0  0  0  0  0  0  0  0  0
   -0.5358    3.6576    3.1124 C   0  0  0  0  0  0  0  0  0  0  0  0
    0.3819    4.0665    3.3401 H   0  0  0  0  0  0  0  0  0  0  0  0
   -1.1929    4.1043    3.7683 H   0  0  0  0  0  0  0  0  0  0  0  0
   -0.8028    3.9597    2.0997 H   0  0  0  0  0  0  0  0  0  0  0  0
   -0.5071    1.8483    3.3811 S   0  0  0  0  0  0  0  0  0  0  0  0
   -2.2642    1.4587    3.2742 C   0  0  0  0  0  0  0  0  0  0  0  0
   -2.7961    2.2934    3.4105 H   0  0  0  0  0  0  0  0  0  0  0  0
   -2.4632    1.0768    2.3727 H   0  0  0  0  0  0  0  0  0  0  0  0
   -2.4977    0.7928    3.9808 H   0  0  0  0  0  0  0  0  0  0  0  0
  1  5  1  0
  5  8  1  0
  1  2  1  0
  1  3  1  0
  1  4  1  0
  5  6  1  0
  5  7  1  0
  8  9  1  0
  8 10  1  0
  8 11  1  0
 12 16  1  0
 16 17  1  0
 12 13  1  0
 12 14  1  0
 12 15  1  0
 17 18  1  0
 17 19  1  0
 17 20  1  0
M  CHG  1   8   1
M  END
>  <PDB_ID>  (223) 
pdb1em6

>  <RESIDUE_NAME>  (223) 
LYS   MET

>  <FRAG_NAME>  (223) 
ETAM   MSM

>  <FRAG_ATOM_NUM>  (223) 
fragi: 11  fragj: 9

>  <atom.prop.CHAIN_ID>  (223) 
A A A A A A A A A A A Z Z Z Z Z Z Z Z Z

>  <atom.prop.IS_HEAVY_ATOM>  (223) 
1 0 0 0 1 0 0 1 0 0 0 1 0 0 0 1 1 0 0 0

>  <DIFUSE_FUNC_ATOM>  (223) 
n/a

>  <FINAL_SINGLE_POINT_ENERGY>  (223) 
0

>  <NONCOV_INTER_ENERGY_QM>  (223) 
0

>  <FF_Energy>  (223) 
-2.8

>  <QM_Energy>  (223) 
-7.97

>  <source>  (223) 
ETAM_MSM

>  <Index>  (223) 
1182

$$$$
ETAM-pdb1el6-C-LYS-128:MSM-pdb1el6-C-MET-120
     RDKit          3D

 20 18  0  0  0  0  0  0  0  0999 V2000
    1.2506    0.8712    0.0000 C   0  0  0  0  0  0  0  0  0  0  0  0
    1.2621    1.4077   -0.8353 H   0  0  0  0  0  0  0  0  0  0  0  0
    2.0461    0.2809    0.0505 H   0  0  0  0  0  0  0  0  0  0  0  0
    1.2558    1.5474    0.8548 H   0  0  0  0  0  0  0  0  0  0  0  0
    0.0000    0.0000    0.0000 C   0  0  0  0  0  0  0  0  0  0  0  0
    0.0115   -0.5835   -0.8167 H   0  0  0  0  0  0  0  0  0  0  0  0
    0.0110   -0.5846    0.8160 H   0  0  0  0  0  0  0  0  0  0  0  0
   -1.2506    0.8150   -0.0000 N   0  0  0  0  0  4  0  0  0  0  0  0
   -2.0317    0.2205    0.1833 H   0  0  0  0  0  0  0  0  0  0  0  0
   -1.1874    1.5148    0.7094 H   0  0  0  0  0  0  0  0  0  0  0  0
   -1.3609    1.2495   -0.8932 H   0  0  0  0  0  0  0  0  0  0  0  0
   -4.1418    0.9450    3.1968 C   0  0  0  0  0  0  0  0  0  0  0  0
   -4.3042   -0.0489    3.1677 H   0  0  0  0  0  0  0  0  0  0  0  0
   -4.8853    1.4009    2.6932 H   0  0  0  0  0  0  0  0  0  0  0  0
   -4.1473    1.2814    4.2335 H   0  0  0  0  0  0  0  0  0  0  0  0
   -2.5422    1.3502    2.4750 S   0  0  0  0  0  0  0  0  0  0  0  0
   -2.6321    3.1120    2.4964 C   0  0  0  0  0  0  0  0  0  0  0  0
   -2.5558    3.4541    3.4391 H   0  0  0  0  0  0  0  0  0  0  0  0
   -1.8852    3.5059    1.9510 H   0  0  0  0  0  0  0  0  0  0  0  0
   -3.5081    3.4220    2.1122 H   0  0  0  0  0  0  0  0  0  0  0  0
  1  5  1  0
  5  8  1  0
  1  2  1  0
  1  3  1  0
  1  4  1  0
  5  6  1  0
  5  7  1  0
  8  9  1  0
  8 10  1  0
  8 11  1  0
 12 16  1  0
 16 17  1  0
 12 13  1  0
 12 14  1  0
 12 15  1  0
 17 18  1  0
 17 19  1  0
 17 20  1  0
M  CHG  1   8   1
M  END
>  <PDB_ID>  (224) 
pdb1el6

>  <RESIDUE_NAME>  (224) 
LYS   MET

>  <FRAG_NAME>  (224) 
ETAM   MSM

>  <FRAG_ATOM_NUM>  (224) 
fragi: 11  fragj: 9

>  <atom.prop.CHAIN_ID>  (224) 
A A A A A A A A A A A Z Z Z Z Z Z Z Z Z

>  <atom.prop.IS_HEAVY_ATOM>  (224) 
1 0 0 0 1 0 0 1 0 0 0 1 0 0 0 1 1 0 0 0

>  <DIFUSE_FUNC_ATOM>  (224) 
n/a

>  <FINAL_SINGLE_POINT_ENERGY>  (224) 
0

>  <NONCOV_INTER_ENERGY_QM>  (224) 
0

>  <FF_Energy>  (224) 
0.34

>  <QM_Energy>  (224) 
-8.47

>  <source>  (224) 
ETAM_MSM

>  <Index>  (224) 
1189

$$$$
ETAM-pdb1epw-A-LYS-578:MSM-pdb1epw-A-MET-574
     RDKit          3D

 20 18  0  0  0  0  0  0  0  0999 V2000
    1.2453    0.8715   -0.0000 C   0  0  0  0  0  0  0  0  0  0  0  0
    1.2054    1.4869    0.7803 H   0  0  0  0  0  0  0  0  0  0  0  0
    1.2738    1.3885   -0.8480 H   0  0  0  0  0  0  0  0  0  0  0  0
    2.1533    0.2732    0.0748 H   0  0  0  0  0  0  0  0  0  0  0  0
    0.0000    0.0000    0.0000 C   0  0  0  0  0  0  0  0  0  0  0  0
    0.0089   -0.5815   -0.8160 H   0  0  0  0  0  0  0  0  0  0  0  0
    0.0089   -0.5823    0.8162 H   0  0  0  0  0  0  0  0  0  0  0  0
   -1.2453    0.8208   -0.0000 N   0  0  0  0  0  4  0  0  0  0  0  0
   -1.0661    1.6931    0.4527 H   0  0  0  0  0  0  0  0  0  0  0  0
   -1.5327    0.9847   -0.9426 H   0  0  0  0  0  0  0  0  0  0  0  0
   -1.9642    0.3291    0.4895 H   0  0  0  0  0  0  0  0  0  0  0  0
   -0.3653   -1.3651    3.6767 C   0  0  0  0  0  0  0  0  0  0  0  0
    0.1782   -0.7544    3.0660 H   0  0  0  0  0  0  0  0  0  0  0  0
   -0.1540   -2.3200    3.3851 H   0  0  0  0  0  0  0  0  0  0  0  0
   -0.0281   -1.2266    4.7039 H   0  0  0  0  0  0  0  0  0  0  0  0
   -2.1547   -1.0259    3.4769 S   0  0  0  0  0  0  0  0  0  0  0  0
   -2.8635   -2.5837    3.9968 C   0  0  0  0  0  0  0  0  0  0  0  0
   -3.5306   -2.8934    3.3171 H   0  0  0  0  0  0  0  0  0  0  0  0
   -2.1394   -3.2696    4.0870 H   0  0  0  0  0  0  0  0  0  0  0  0
   -3.3215   -2.4676    4.8804 H   0  0  0  0  0  0  0  0  0  0  0  0
  1  5  1  0
  5  8  1  0
  1  2  1  0
  1  3  1  0
  1  4  1  0
  5  6  1  0
  5  7  1  0
  8  9  1  0
  8 10  1  0
  8 11  1  0
 12 16  1  0
 16 17  1  0
 12 13  1  0
 12 14  1  0
 12 15  1  0
 17 18  1  0
 17 19  1  0
 17 20  1  0
M  CHG  1   8   1
M  END
>  <PDB_ID>  (225) 
pdb1epw

>  <RESIDUE_NAME>  (225) 
LYS   MET

>  <FRAG_NAME>  (225) 
ETAM   MSM

>  <FRAG_ATOM_NUM>  (225) 
fragi: 11  fragj: 9

>  <atom.prop.CHAIN_ID>  (225) 
A A A A A A A A A A A Z Z Z Z Z Z Z Z Z

>  <atom.prop.IS_HEAVY_ATOM>  (225) 
1 0 0 0 1 0 0 1 0 0 0 1 0 0 0 1 1 0 0 0

>  <DIFUSE_FUNC_ATOM>  (225) 
n/a

>  <FINAL_SINGLE_POINT_ENERGY>  (225) 
0

>  <NONCOV_INTER_ENERGY_QM>  (225) 
0

>  <FF_Energy>  (225) 
-3.82

>  <QM_Energy>  (225) 
-9.22

>  <source>  (225) 
ETAM_MSM

>  <Index>  (225) 
1191

$$$$
ETAM-pdb2f5z-C-LYS-92:MSM-pdb2f5z-C-MET-89
     RDKit          3D

 20 18  0  0  0  0  0  0  0  0999 V2000
    1.2516    0.8509   -0.0000 C   0  0  0  0  0  0  0  0  0  0  0  0
    1.2174    1.4828    0.7661 H   0  0  0  0  0  0  0  0  0  0  0  0
    1.3090    1.3461   -0.8593 H   0  0  0  0  0  0  0  0  0  0  0  0
    2.1505    0.2430    0.1030 H   0  0  0  0  0  0  0  0  0  0  0  0
    0.0000    0.0000    0.0000 C   0  0  0  0  0  0  0  0  0  0  0  0
   -0.0072   -0.5818   -0.8162 H   0  0  0  0  0  0  0  0  0  0  0  0
   -0.0076   -0.5812    0.8170 H   0  0  0  0  0  0  0  0  0  0  0  0
   -1.2516    0.8430   -0.0000 N   0  0  0  0  0  4  0  0  0  0  0  0
   -1.0140    1.7709   -0.2750 H   0  0  0  0  0  0  0  0  0  0  0  0
   -1.9035    0.4512   -0.6437 H   0  0  0  0  0  0  0  0  0  0  0  0
   -1.6374    0.8463    0.9187 H   0  0  0  0  0  0  0  0  0  0  0  0
   -1.8184    0.1653   -4.6017 C   0  0  0  0  0  0  0  0  0  0  0  0
   -1.3794    0.3475   -5.5014 H   0  0  0  0  0  0  0  0  0  0  0  0
   -2.8232    0.2461   -4.7464 H   0  0  0  0  0  0  0  0  0  0  0  0
   -1.5863   -0.8552   -4.2969 H   0  0  0  0  0  0  0  0  0  0  0  0
   -1.2550    1.3539   -3.3651 S   0  0  0  0  0  0  0  0  0  0  0  0
   -1.3606    2.9094   -4.2600 C   0  0  0  0  0  0  0  0  0  0  0  0
   -1.3682    2.7277   -5.2436 H   0  0  0  0  0  0  0  0  0  0  0  0
   -2.2020    3.3853   -4.0018 H   0  0  0  0  0  0  0  0  0  0  0  0
   -0.5712    3.4783   -4.0310 H   0  0  0  0  0  0  0  0  0  0  0  0
  1  5  1  0
  5  8  1  0
  1  2  1  0
  1  3  1  0
  1  4  1  0
  5  6  1  0
  5  7  1  0
  8  9  1  0
  8 10  1  0
  8 11  1  0
 12 16  1  0
 16 17  1  0
 12 13  1  0
 12 14  1  0
 12 15  1  0
 17 18  1  0
 17 19  1  0
 17 20  1  0
M  CHG  1   8   1
M  END
>  <PDB_ID>  (226) 
pdb2f5z

>  <RESIDUE_NAME>  (226) 
LYS   MET

>  <FRAG_NAME>  (226) 
ETAM   MSM

>  <FRAG_ATOM_NUM>  (226) 
fragi: 11  fragj: 9

>  <atom.prop.CHAIN_ID>  (226) 
A A A A A A A A A A A Z Z Z Z Z Z Z Z Z

>  <atom.prop.IS_HEAVY_ATOM>  (226) 
1 0 0 0 1 0 0 1 0 0 0 1 0 0 0 1 1 0 0 0

>  <DIFUSE_FUNC_ATOM>  (226) 
n/a

>  <FINAL_SINGLE_POINT_ENERGY>  (226) 
0

>  <NONCOV_INTER_ENERGY_QM>  (226) 
0

>  <FF_Energy>  (226) 
-5.75

>  <QM_Energy>  (226) 
-13.99

>  <source>  (226) 
ETAM_MSM

>  <Index>  (226) 
1198

$$$$
ETAM-pdb2f5z-D-LYS-92:MSM-pdb2f5z-D-MET-89
     RDKit          3D

 20 18  0  0  0  0  0  0  0  0999 V2000
    1.2611    0.8804   -0.0000 C   0  0  0  0  0  0  0  0  0  0  0  0
    1.1607    1.5675    0.7085 H   0  0  0  0  0  0  0  0  0  0  0  0
    1.3442    1.3041   -0.8930 H   0  0  0  0  0  0  0  0  0  0  0  0
    2.1563    0.2917    0.2003 H   0  0  0  0  0  0  0  0  0  0  0  0
    0.0000    0.0000    0.0000 C   0  0  0  0  0  0  0  0  0  0  0  0
    0.0180   -0.5835   -0.8160 H   0  0  0  0  0  0  0  0  0  0  0  0
    0.0174   -0.5839    0.8158 H   0  0  0  0  0  0  0  0  0  0  0  0
   -1.2611    0.8069   -0.0000 N   0  0  0  0  0  4  0  0  0  0  0  0
   -1.3069    1.3430    0.8407 H   0  0  0  0  0  0  0  0  0  0  0  0
   -1.2588    1.4171   -0.7902 H   0  0  0  0  0  0  0  0  0  0  0  0
   -2.0442    0.1895   -0.0512 H   0  0  0  0  0  0  0  0  0  0  0  0
   -1.9243   -0.7014   -4.5838 C   0  0  0  0  0  0  0  0  0  0  0  0
   -1.4601   -0.5980   -5.4726 H   0  0  0  0  0  0  0  0  0  0  0  0
   -2.9188   -0.7110   -4.7490 H   0  0  0  0  0  0  0  0  0  0  0  0
   -1.6276   -1.6498   -4.1359 H   0  0  0  0  0  0  0  0  0  0  0  0
   -1.4737    0.6412   -3.4661 S   0  0  0  0  0  0  0  0  0  0  0  0
   -1.7689    2.0290   -4.4775 C   0  0  0  0  0  0  0  0  0  0  0  0
   -1.0189    2.1577   -5.1414 H   0  0  0  0  0  0  0  0  0  0  0  0
   -2.6288    1.9207   -4.9957 H   0  0  0  0  0  0  0  0  0  0  0  0
   -1.8415    2.8697   -3.9233 H   0  0  0  0  0  0  0  0  0  0  0  0
  1  5  1  0
  5  8  1  0
  1  2  1  0
  1  3  1  0
  1  4  1  0
  5  6  1  0
  5  7  1  0
  8  9  1  0
  8 10  1  0
  8 11  1  0
 12 16  1  0
 16 17  1  0
 12 13  1  0
 12 14  1  0
 12 15  1  0
 17 18  1  0
 17 19  1  0
 17 20  1  0
M  CHG  1   8   1
M  END
>  <PDB_ID>  (227) 
pdb2f5z

>  <RESIDUE_NAME>  (227) 
LYS   MET

>  <FRAG_NAME>  (227) 
ETAM   MSM

>  <FRAG_ATOM_NUM>  (227) 
fragi: 11  fragj: 9

>  <atom.prop.CHAIN_ID>  (227) 
A A A A A A A A A A A Z Z Z Z Z Z Z Z Z

>  <atom.prop.IS_HEAVY_ATOM>  (227) 
1 0 0 0 1 0 0 1 0 0 0 1 0 0 0 1 1 0 0 0

>  <DIFUSE_FUNC_ATOM>  (227) 
n/a

>  <FINAL_SINGLE_POINT_ENERGY>  (227) 
0

>  <NONCOV_INTER_ENERGY_QM>  (227) 
0

>  <FF_Energy>  (227) 
-5.73

>  <QM_Energy>  (227) 
-13.57

>  <source>  (227) 
ETAM_MSM

>  <Index>  (227) 
1199

$$$$
ETAM-pdb2f5z-E-LYS-92:MSM-pdb2f5z-E-MET-89
     RDKit          3D

 20 18  0  0  0  0  0  0  0  0999 V2000
    1.2485    0.8738    0.0000 C   0  0  0  0  0  0  0  0  0  0  0  0
    1.1438    1.5807    0.6924 H   0  0  0  0  0  0  0  0  0  0  0  0
    1.3517    1.2833   -0.9007 H   0  0  0  0  0  0  0  0  0  0  0  0
    2.1471    0.2995    0.2257 H   0  0  0  0  0  0  0  0  0  0  0  0
    0.0000    0.0000    0.0000 C   0  0  0  0  0  0  0  0  0  0  0  0
    0.0126   -0.5837   -0.8157 H   0  0  0  0  0  0  0  0  0  0  0  0
    0.0124   -0.5834    0.8168 H   0  0  0  0  0  0  0  0  0  0  0  0
   -1.2485    0.8140    0.0000 N   0  0  0  0  0  4  0  0  0  0  0  0
   -2.0286    0.2214   -0.1946 H   0  0  0  0  0  0  0  0  0  0  0  0
   -1.3654    1.2395    0.8968 H   0  0  0  0  0  0  0  0  0  0  0  0
   -1.1808    1.5220   -0.7018 H   0  0  0  0  0  0  0  0  0  0  0  0
   -1.6203   -0.4402   -4.5767 C   0  0  0  0  0  0  0  0  0  0  0  0
   -1.0915   -0.2714   -5.4090 H   0  0  0  0  0  0  0  0  0  0  0  0
   -2.5960   -0.4445   -4.8005 H   0  0  0  0  0  0  0  0  0  0  0  0
   -1.3342   -1.3990   -4.1443 H   0  0  0  0  0  0  0  0  0  0  0  0
   -1.2706    0.8808   -3.3362 S   0  0  0  0  0  0  0  0  0  0  0  0
   -1.5849    2.2638   -4.2704 C   0  0  0  0  0  0  0  0  0  0  0  0
   -1.4683    3.1214   -3.7349 H   0  0  0  0  0  0  0  0  0  0  0  0
   -0.9632    2.3326   -5.0730 H   0  0  0  0  0  0  0  0  0  0  0  0
   -2.5350    2.2713   -4.6345 H   0  0  0  0  0  0  0  0  0  0  0  0
  1  5  1  0
  5  8  1  0
  1  2  1  0
  1  3  1  0
  1  4  1  0
  5  6  1  0
  5  7  1  0
  8  9  1  0
  8 10  1  0
  8 11  1  0
 12 16  1  0
 16 17  1  0
 12 13  1  0
 12 14  1  0
 12 15  1  0
 17 18  1  0
 17 19  1  0
 17 20  1  0
M  CHG  1   8   1
M  END
>  <PDB_ID>  (228) 
pdb2f5z

>  <RESIDUE_NAME>  (228) 
LYS   MET

>  <FRAG_NAME>  (228) 
ETAM   MSM

>  <FRAG_ATOM_NUM>  (228) 
fragi: 11  fragj: 9

>  <atom.prop.CHAIN_ID>  (228) 
A A A A A A A A A A A Z Z Z Z Z Z Z Z Z

>  <atom.prop.IS_HEAVY_ATOM>  (228) 
1 0 0 0 1 0 0 1 0 0 0 1 0 0 0 1 1 0 0 0

>  <DIFUSE_FUNC_ATOM>  (228) 
n/a

>  <FINAL_SINGLE_POINT_ENERGY>  (228) 
0

>  <NONCOV_INTER_ENERGY_QM>  (228) 
0

>  <FF_Energy>  (228) 
-5.79

>  <QM_Energy>  (228) 
-14.1

>  <source>  (228) 
ETAM_MSM

>  <Index>  (228) 
1200

$$$$
ETAM-pdb2f5z-F-LYS-92:MSM-pdb2f5z-F-MET-89
     RDKit          3D

 20 18  0  0  0  0  0  0  0  0999 V2000
    1.2580    0.8777   -0.0000 C   0  0  0  0  0  0  0  0  0  0  0  0
    1.2111    1.4977    0.7691 H   0  0  0  0  0  0  0  0  0  0  0  0
    1.2995    1.3694   -0.8563 H   0  0  0  0  0  0  0  0  0  0  0  0
    2.1565    0.2684    0.0978 H   0  0  0  0  0  0  0  0  0  0  0  0
    0.0000    0.0000    0.0000 C   0  0  0  0  0  0  0  0  0  0  0  0
    0.0228   -0.5891   -0.8165 H   0  0  0  0  0  0  0  0  0  0  0  0
    0.0231   -0.5893    0.8166 H   0  0  0  0  0  0  0  0  0  0  0  0
   -1.2580    0.7914   -0.0000 N   0  0  0  0  0  4  0  0  0  0  0  0
   -1.9927    0.2476    0.4048 H   0  0  0  0  0  0  0  0  0  0  0  0
   -1.1262    1.6255    0.5351 H   0  0  0  0  0  0  0  0  0  0  0  0
   -1.4997    1.0323   -0.9404 H   0  0  0  0  0  0  0  0  0  0  0  0
   -1.8291    0.1170   -4.6390 C   0  0  0  0  0  0  0  0  0  0  0  0
   -1.2739    0.3328   -5.4559 H   0  0  0  0  0  0  0  0  0  0  0  0
   -2.8026    0.2107   -4.8950 H   0  0  0  0  0  0  0  0  0  0  0  0
   -1.6315   -0.9080   -4.3253 H   0  0  0  0  0  0  0  0  0  0  0  0
   -1.4231    1.2628   -3.2824 S   0  0  0  0  0  0  0  0  0  0  0  0
   -1.6884    2.8043   -4.0721 C   0  0  0  0  0  0  0  0  0  0  0  0
   -2.2796    3.3952   -3.5091 H   0  0  0  0  0  0  0  0  0  0  0  0
   -0.8133    3.2822   -4.2213 H   0  0  0  0  0  0  0  0  0  0  0  0
   -2.1333    2.6728   -4.9664 H   0  0  0  0  0  0  0  0  0  0  0  0
  1  5  1  0
  5  8  1  0
  1  2  1  0
  1  3  1  0
  1  4  1  0
  5  6  1  0
  5  7  1  0
  8  9  1  0
  8 10  1  0
  8 11  1  0
 12 16  1  0
 16 17  1  0
 12 13  1  0
 12 14  1  0
 12 15  1  0
 17 18  1  0
 17 19  1  0
 17 20  1  0
M  CHG  1   8   1
M  END
>  <PDB_ID>  (229) 
pdb2f5z

>  <RESIDUE_NAME>  (229) 
LYS   MET

>  <FRAG_NAME>  (229) 
ETAM   MSM

>  <FRAG_ATOM_NUM>  (229) 
fragi: 11  fragj: 9

>  <atom.prop.CHAIN_ID>  (229) 
A A A A A A A A A A A Z Z Z Z Z Z Z Z Z

>  <atom.prop.IS_HEAVY_ATOM>  (229) 
1 0 0 0 1 0 0 1 0 0 0 1 0 0 0 1 1 0 0 0

>  <DIFUSE_FUNC_ATOM>  (229) 
n/a

>  <FINAL_SINGLE_POINT_ENERGY>  (229) 
0

>  <NONCOV_INTER_ENERGY_QM>  (229) 
0

>  <FF_Energy>  (229) 
-6.14

>  <QM_Energy>  (229) 
-16.63

>  <source>  (229) 
ETAM_MSM

>  <Index>  (229) 
1201

$$$$
ETAM-pdb2f5z-H-LYS-92:MSM-pdb2f5z-H-MET-89
     RDKit          3D

 20 18  0  0  0  0  0  0  0  0999 V2000
    1.2582    0.8742   -0.0000 C   0  0  0  0  0  0  0  0  0  0  0  0
    1.1936    1.5238    0.7488 H   0  0  0  0  0  0  0  0  0  0  0  0
    1.3154    1.3481   -0.8708 H   0  0  0  0  0  0  0  0  0  0  0  0
    2.1639    0.2825    0.1328 H   0  0  0  0  0  0  0  0  0  0  0  0
    0.0000    0.0000    0.0000 C   0  0  0  0  0  0  0  0  0  0  0  0
    0.0147   -0.5848   -0.8166 H   0  0  0  0  0  0  0  0  0  0  0  0
    0.0150   -0.5847    0.8162 H   0  0  0  0  0  0  0  0  0  0  0  0
   -1.2582    0.8088    0.0000 N   0  0  0  0  0  4  0  0  0  0  0  0
   -1.0325    1.7674   -0.1653 H   0  0  0  0  0  0  0  0  0  0  0  0
   -1.8624    0.4753   -0.7214 H   0  0  0  0  0  0  0  0  0  0  0  0
   -1.7079    0.7161    0.8866 H   0  0  0  0  0  0  0  0  0  0  0  0
   -1.8527    0.0376   -4.5983 C   0  0  0  0  0  0  0  0  0  0  0  0
   -1.3985    0.2818   -5.4676 H   0  0  0  0  0  0  0  0  0  0  0  0
   -2.8513    0.0756   -4.7502 H   0  0  0  0  0  0  0  0  0  0  0  0
   -1.5682   -0.9755   -4.3142 H   0  0  0  0  0  0  0  0  0  0  0  0
   -1.3721    1.2374   -3.2816 S   0  0  0  0  0  0  0  0  0  0  0  0
   -1.6551    2.7682   -4.1343 C   0  0  0  0  0  0  0  0  0  0  0  0
   -1.0138    3.4682   -3.8069 H   0  0  0  0  0  0  0  0  0  0  0  0
   -1.5223    2.6421   -5.1210 H   0  0  0  0  0  0  0  0  0  0  0  0
   -2.5930    3.0844   -3.9709 H   0  0  0  0  0  0  0  0  0  0  0  0
  1  5  1  0
  5  8  1  0
  1  2  1  0
  1  3  1  0
  1  4  1  0
  5  6  1  0
  5  7  1  0
  8  9  1  0
  8 10  1  0
  8 11  1  0
 12 16  1  0
 16 17  1  0
 12 13  1  0
 12 14  1  0
 12 15  1  0
 17 18  1  0
 17 19  1  0
 17 20  1  0
M  CHG  1   8   1
M  END
>  <PDB_ID>  (230) 
pdb2f5z

>  <RESIDUE_NAME>  (230) 
LYS   MET

>  <FRAG_NAME>  (230) 
ETAM   MSM

>  <FRAG_ATOM_NUM>  (230) 
fragi: 11  fragj: 9

>  <atom.prop.CHAIN_ID>  (230) 
A A A A A A A A A A A Z Z Z Z Z Z Z Z Z

>  <atom.prop.IS_HEAVY_ATOM>  (230) 
1 0 0 0 1 0 0 1 0 0 0 1 0 0 0 1 1 0 0 0

>  <DIFUSE_FUNC_ATOM>  (230) 
n/a

>  <FINAL_SINGLE_POINT_ENERGY>  (230) 
0

>  <NONCOV_INTER_ENERGY_QM>  (230) 
0

>  <FF_Energy>  (230) 
-5.77

>  <QM_Energy>  (230) 
-14.71

>  <source>  (230) 
ETAM_MSM

>  <Index>  (230) 
1204

$$$$
ETAM-pdb1ew6-A-LYS-41:MSM-pdb1ew6-A-MET-49
     RDKit          3D

 20 18  0  0  0  0  0  0  0  0999 V2000
    1.2535    0.8631    0.0000 C   0  0  0  0  0  0  0  0  0  0  0  0
    1.2092    1.4825   -0.7778 H   0  0  0  0  0  0  0  0  0  0  0  0
    2.0464    0.2671   -0.0777 H   0  0  0  0  0  0  0  0  0  0  0  0
    1.3337    1.4472    0.9167 H   0  0  0  0  0  0  0  0  0  0  0  0
    0.0000    0.0000    0.0000 C   0  0  0  0  0  0  0  0  0  0  0  0
    0.0103   -0.5880   -0.8165 H   0  0  0  0  0  0  0  0  0  0  0  0
    0.0096   -0.5888    0.8164 H   0  0  0  0  0  0  0  0  0  0  0  0
   -1.2535    0.8093   -0.0000 N   0  0  0  0  0  4  0  0  0  0  0  0
   -1.9709    0.3062    0.4805 H   0  0  0  0  0  0  0  0  0  0  0  0
   -1.0846    1.6784    0.4626 H   0  0  0  0  0  0  0  0  0  0  0  0
   -1.5361    0.9798   -0.9427 H   0  0  0  0  0  0  0  0  0  0  0  0
    3.5957   -2.2916   -2.5791 C   0  0  0  0  0  0  0  0  0  0  0  0
    3.2212   -3.1732   -2.1990 H   0  0  0  0  0  0  0  0  0  0  0  0
    4.3879   -2.0555   -1.9629 H   0  0  0  0  0  0  0  0  0  0  0  0
    3.9887   -2.4925   -3.5758 H   0  0  0  0  0  0  0  0  0  0  0  0
    2.3400   -0.9916   -2.5319 S   0  0  0  0  0  0  0  0  0  0  0  0
    0.8128   -1.9580   -2.5985 C   0  0  0  0  0  0  0  0  0  0  0  0
    0.3257   -1.8595   -1.7325 H   0  0  0  0  0  0  0  0  0  0  0  0
    0.2443   -1.6206   -3.3466 H   0  0  0  0  0  0  0  0  0  0  0  0
    1.0393   -2.9182   -2.7528 H   0  0  0  0  0  0  0  0  0  0  0  0
  1  5  1  0
  5  8  1  0
  1  2  1  0
  1  3  1  0
  1  4  1  0
  5  6  1  0
  5  7  1  0
  8  9  1  0
  8 10  1  0
  8 11  1  0
 12 16  1  0
 16 17  1  0
 12 13  1  0
 12 14  1  0
 12 15  1  0
 17 18  1  0
 17 19  1  0
 17 20  1  0
M  CHG  1   8   1
M  END
>  <PDB_ID>  (231) 
pdb1ew6

>  <RESIDUE_NAME>  (231) 
LYS   MET

>  <FRAG_NAME>  (231) 
ETAM   MSM

>  <FRAG_ATOM_NUM>  (231) 
fragi: 11  fragj: 9

>  <atom.prop.CHAIN_ID>  (231) 
A A A A A A A A A A A Z Z Z Z Z Z Z Z Z

>  <atom.prop.IS_HEAVY_ATOM>  (231) 
1 0 0 0 1 0 0 1 0 0 0 1 0 0 0 1 1 0 0 0

>  <DIFUSE_FUNC_ATOM>  (231) 
n/a

>  <FINAL_SINGLE_POINT_ENERGY>  (231) 
0

>  <NONCOV_INTER_ENERGY_QM>  (231) 
0

>  <FF_Energy>  (231) 
14.98

>  <QM_Energy>  (231) 
-1.2

>  <source>  (231) 
ETAM_MSM

>  <Index>  (231) 
1232

$$$$
ETAM-pdb1ew6-B-LYS-41:MSM-pdb1ew6-B-MET-49
     RDKit          3D

 20 18  0  0  0  0  0  0  0  0999 V2000
    1.2428    0.8779   -0.0000 C   0  0  0  0  0  0  0  0  0  0  0  0
    1.2672    1.3923   -0.8499 H   0  0  0  0  0  0  0  0  0  0  0  0
    2.0427    0.2936    0.0766 H   0  0  0  0  0  0  0  0  0  0  0  0
    1.2321    1.5771    0.8362 H   0  0  0  0  0  0  0  0  0  0  0  0
    0.0000    0.0000    0.0000 C   0  0  0  0  0  0  0  0  0  0  0  0
    0.0144   -0.5812   -0.8161 H   0  0  0  0  0  0  0  0  0  0  0  0
    0.0140   -0.5813    0.8161 H   0  0  0  0  0  0  0  0  0  0  0  0
   -1.2428    0.8146   -0.0000 N   0  0  0  0  0  4  0  0  0  0  0  0
   -1.9790    0.2983    0.4365 H   0  0  0  0  0  0  0  0  0  0  0  0
   -1.0844    1.6624    0.5052 H   0  0  0  0  0  0  0  0  0  0  0  0
   -1.4994    1.0304   -0.9420 H   0  0  0  0  0  0  0  0  0  0  0  0
    2.7659   -3.1577   -2.1990 C   0  0  0  0  0  0  0  0  0  0  0  0
    2.1216   -3.9324   -2.0346 H   0  0  0  0  0  0  0  0  0  0  0  0
    3.2907   -3.0357   -1.3311 H   0  0  0  0  0  0  0  0  0  0  0  0
    3.4584   -3.4409   -2.9917 H   0  0  0  0  0  0  0  0  0  0  0  0
    1.8509   -1.6451   -2.6052 S   0  0  0  0  0  0  0  0  0  0  0  0
    1.2082   -2.0686   -4.2269 C   0  0  0  0  0  0  0  0  0  0  0  0
    0.7213   -2.9412   -4.1760 H   0  0  0  0  0  0  0  0  0  0  0  0
    0.5788   -1.3537   -4.5340 H   0  0  0  0  0  0  0  0  0  0  0  0
    1.9658   -2.1465   -4.8760 H   0  0  0  0  0  0  0  0  0  0  0  0
  1  5  1  0
  5  8  1  0
  1  2  1  0
  1  3  1  0
  1  4  1  0
  5  6  1  0
  5  7  1  0
  8  9  1  0
  8 10  1  0
  8 11  1  0
 12 16  1  0
 16 17  1  0
 12 13  1  0
 12 14  1  0
 12 15  1  0
 17 18  1  0
 17 19  1  0
 17 20  1  0
M  CHG  1   8   1
M  END
>  <PDB_ID>  (232) 
pdb1ew6

>  <RESIDUE_NAME>  (232) 
LYS   MET

>  <FRAG_NAME>  (232) 
ETAM   MSM

>  <FRAG_ATOM_NUM>  (232) 
fragi: 11  fragj: 9

>  <atom.prop.CHAIN_ID>  (232) 
A A A A A A A A A A A Z Z Z Z Z Z Z Z Z

>  <atom.prop.IS_HEAVY_ATOM>  (232) 
1 0 0 0 1 0 0 1 0 0 0 1 0 0 0 1 1 0 0 0

>  <DIFUSE_FUNC_ATOM>  (232) 
n/a

>  <FINAL_SINGLE_POINT_ENERGY>  (232) 
0

>  <NONCOV_INTER_ENERGY_QM>  (232) 
0

>  <FF_Energy>  (232) 
-3.46

>  <QM_Energy>  (232) 
-8.48

>  <source>  (232) 
ETAM_MSM

>  <Index>  (232) 
1233

$$$$
ETAM-pdb2fnj-B-LYS-19:MSM-pdb2fnj-B-MET-1
     RDKit          3D

 20 18  0  0  0  0  0  0  0  0999 V2000
    1.2466    0.8724    0.0000 C   0  0  0  0  0  0  0  0  0  0  0  0
    1.2651    1.3984    0.8426 H   0  0  0  0  0  0  0  0  0  0  0  0
    1.2104    1.4753   -0.7881 H   0  0  0  0  0  0  0  0  0  0  0  0
    2.1497    0.2649   -0.0581 H   0  0  0  0  0  0  0  0  0  0  0  0
    0.0000    0.0000    0.0000 C   0  0  0  0  0  0  0  0  0  0  0  0
    0.0137   -0.5844   -0.8159 H   0  0  0  0  0  0  0  0  0  0  0  0
    0.0130   -0.5853    0.8162 H   0  0  0  0  0  0  0  0  0  0  0  0
   -1.2466    0.8109    0.0000 N   0  0  0  0  0  4  0  0  0  0  0  0
   -1.5626    0.9343   -0.9405 H   0  0  0  0  0  0  0  0  0  0  0  0
   -1.9504    0.3383    0.5298 H   0  0  0  0  0  0  0  0  0  0  0  0
   -1.0623    1.7039    0.4107 H   0  0  0  0  0  0  0  0  0  0  0  0
    1.2064    3.5453    2.1113 C   0  0  0  0  0  0  0  0  0  0  0  0
    1.3441    3.0921    1.1932 H   0  0  0  0  0  0  0  0  0  0  0  0
    2.1611    3.7748    2.4305 H   0  0  0  0  0  0  0  0  0  0  0  0
    0.6633    4.4772    1.9546 H   0  0  0  0  0  0  0  0  0  0  0  0
    0.4119    2.3933    3.2716 S   0  0  0  0  0  0  0  0  0  0  0  0
    1.8665    1.5331    3.9566 C   0  0  0  0  0  0  0  0  0  0  0  0
    2.3552    2.1603    4.5562 H   0  0  0  0  0  0  0  0  0  0  0  0
    1.5553    0.7386    4.4695 H   0  0  0  0  0  0  0  0  0  0  0  0
    2.4531    1.2480    3.2038 H   0  0  0  0  0  0  0  0  0  0  0  0
  1  5  1  0
  5  8  1  0
  1  2  1  0
  1  3  1  0
  1  4  1  0
  5  6  1  0
  5  7  1  0
  8  9  1  0
  8 10  1  0
  8 11  1  0
 12 16  1  0
 16 17  1  0
 12 13  1  0
 12 14  1  0
 12 15  1  0
 17 18  1  0
 17 19  1  0
 17 20  1  0
M  CHG  1   8   1
M  END
>  <PDB_ID>  (233) 
pdb2fnj

>  <RESIDUE_NAME>  (233) 
LYS   MET

>  <FRAG_NAME>  (233) 
ETAM   MSM

>  <FRAG_ATOM_NUM>  (233) 
fragi: 11  fragj: 9

>  <atom.prop.CHAIN_ID>  (233) 
A A A A A A A A A A A Z Z Z Z Z Z Z Z Z

>  <atom.prop.IS_HEAVY_ATOM>  (233) 
1 0 0 0 1 0 0 1 0 0 0 1 0 0 0 1 1 0 0 0

>  <DIFUSE_FUNC_ATOM>  (233) 
n/a

>  <FINAL_SINGLE_POINT_ENERGY>  (233) 
0

>  <NONCOV_INTER_ENERGY_QM>  (233) 
0

>  <FF_Energy>  (233) 
2.51

>  <QM_Energy>  (233) 
-7.02

>  <source>  (233) 
ETAM_MSM

>  <Index>  (233) 
1236

$$$$
ETAM-pdb1evy-A-LYS-313:MSM-pdb1evy-A-MET-309
     RDKit          3D

 20 18  0  0  0  0  0  0  0  0999 V2000
    1.2817    0.8485   -0.0000 C   0  0  0  0  0  0  0  0  0  0  0  0
    1.1116    1.6754    0.5431 H   0  0  0  0  0  0  0  0  0  0  0  0
    1.4801    1.1181   -0.9471 H   0  0  0  0  0  0  0  0  0  0  0  0
    2.1587    0.3449    0.4067 H   0  0  0  0  0  0  0  0  0  0  0  0
    0.0000    0.0000    0.0000 C   0  0  0  0  0  0  0  0  0  0  0  0
    0.0222   -0.6090   -0.8159 H   0  0  0  0  0  0  0  0  0  0  0  0
    0.0212   -0.6090    0.8165 H   0  0  0  0  0  0  0  0  0  0  0  0
   -1.2817    0.7634    0.0000 N   0  0  0  0  0  4  0  0  0  0  0  0
   -1.9069    0.3582    0.6654 H   0  0  0  0  0  0  0  0  0  0  0  0
   -1.0991    1.7144    0.2461 H   0  0  0  0  0  0  0  0  0  0  0  0
   -1.6888    0.7238   -0.9117 H   0  0  0  0  0  0  0  0  0  0  0  0
   -1.9913    0.4262    5.2077 C   0  0  0  0  0  0  0  0  0  0  0  0
   -1.4270   -0.4644    5.0689 H   0  0  0  0  0  0  0  0  0  0  0  0
   -2.9785    0.0311    5.1847 H   0  0  0  0  0  0  0  0  0  0  0  0
   -1.8067    0.7645    6.2273 H   0  0  0  0  0  0  0  0  0  0  0  0
   -1.7444    1.5453    3.7371 S   0  0  0  0  0  0  0  0  0  0  0  0
   -2.9746    2.8460    3.9377 C   0  0  0  0  0  0  0  0  0  0  0  0
   -3.8864    2.4380    3.9635 H   0  0  0  0  0  0  0  0  0  0  0  0
   -2.8012    3.3358    4.7912 H   0  0  0  0  0  0  0  0  0  0  0  0
   -2.9131    3.4813    3.1678 H   0  0  0  0  0  0  0  0  0  0  0  0
  1  5  1  0
  5  8  1  0
  1  2  1  0
  1  3  1  0
  1  4  1  0
  5  6  1  0
  5  7  1  0
  8  9  1  0
  8 10  1  0
  8 11  1  0
 12 16  1  0
 16 17  1  0
 12 13  1  0
 12 14  1  0
 12 15  1  0
 17 18  1  0
 17 19  1  0
 17 20  1  0
M  CHG  1   8   1
M  END
>  <PDB_ID>  (234) 
pdb1evy

>  <RESIDUE_NAME>  (234) 
LYS   MET

>  <FRAG_NAME>  (234) 
ETAM   MSM

>  <FRAG_ATOM_NUM>  (234) 
fragi: 11  fragj: 9

>  <atom.prop.CHAIN_ID>  (234) 
A A A A A A A A A A A Z Z Z Z Z Z Z Z Z

>  <atom.prop.IS_HEAVY_ATOM>  (234) 
1 0 0 0 1 0 0 1 0 0 0 1 0 0 0 1 1 0 0 0

>  <DIFUSE_FUNC_ATOM>  (234) 
n/a

>  <FINAL_SINGLE_POINT_ENERGY>  (234) 
0

>  <NONCOV_INTER_ENERGY_QM>  (234) 
0

>  <FF_Energy>  (234) 
-4.59

>  <QM_Energy>  (234) 
-10.8

>  <source>  (234) 
ETAM_MSM

>  <Index>  (234) 
1247

$$$$
ETAM-pdb2fjc-L-LYS-166:MSM-pdb2fjc-L-MET-170
     RDKit          3D

 20 18  0  0  0  0  0  0  0  0999 V2000
    1.2907    0.8399    0.0000 C   0  0  0  0  0  0  0  0  0  0  0  0
    1.2775    1.4260   -0.8024 H   0  0  0  0  0  0  0  0  0  0  0  0
    2.0642    0.2177   -0.0364 H   0  0  0  0  0  0  0  0  0  0  0  0
    1.3711    1.4591    0.8934 H   0  0  0  0  0  0  0  0  0  0  0  0
    0.0000    0.0000    0.0000 C   0  0  0  0  0  0  0  0  0  0  0  0
    0.0177   -0.6106   -0.8161 H   0  0  0  0  0  0  0  0  0  0  0  0
    0.0174   -0.6112    0.8160 H   0  0  0  0  0  0  0  0  0  0  0  0
   -1.2907    0.7652   -0.0000 N   0  0  0  0  0  4  0  0  0  0  0  0
   -1.7817    0.5743    0.8465 H   0  0  0  0  0  0  0  0  0  0  0  0
   -1.0910    1.7407   -0.0645 H   0  0  0  0  0  0  0  0  0  0  0  0
   -1.8390    0.4789   -0.7833 H   0  0  0  0  0  0  0  0  0  0  0  0
   -0.3745    4.8727   -2.0256 C   0  0  0  0  0  0  0  0  0  0  0  0
   -0.4928    4.5700   -3.0130 H   0  0  0  0  0  0  0  0  0  0  0  0
    0.4148    4.2862   -1.6856 H   0  0  0  0  0  0  0  0  0  0  0  0
   -0.0434    5.9112   -2.0310 H   0  0  0  0  0  0  0  0  0  0  0  0
   -1.8791    4.5220   -1.0724 S   0  0  0  0  0  0  0  0  0  0  0  0
   -1.1828    3.7391    0.4130 C   0  0  0  0  0  0  0  0  0  0  0  0
   -0.1908    3.8318    0.3915 H   0  0  0  0  0  0  0  0  0  0  0  0
   -1.5516    4.1938    1.2198 H   0  0  0  0  0  0  0  0  0  0  0  0
   -1.4362    2.7748    0.4183 H   0  0  0  0  0  0  0  0  0  0  0  0
  1  5  1  0
  5  8  1  0
  1  2  1  0
  1  3  1  0
  1  4  1  0
  5  6  1  0
  5  7  1  0
  8  9  1  0
  8 10  1  0
  8 11  1  0
 12 16  1  0
 16 17  1  0
 12 13  1  0
 12 14  1  0
 12 15  1  0
 17 18  1  0
 17 19  1  0
 17 20  1  0
M  CHG  1   8   1
M  END
>  <PDB_ID>  (235) 
pdb2fjc

>  <RESIDUE_NAME>  (235) 
LYS   MET

>  <FRAG_NAME>  (235) 
ETAM   MSM

>  <FRAG_ATOM_NUM>  (235) 
fragi: 11  fragj: 9

>  <atom.prop.CHAIN_ID>  (235) 
A A A A A A A A A A A Z Z Z Z Z Z Z Z Z

>  <atom.prop.IS_HEAVY_ATOM>  (235) 
1 0 0 0 1 0 0 1 0 0 0 1 0 0 0 1 1 0 0 0

>  <DIFUSE_FUNC_ATOM>  (235) 
n/a

>  <FINAL_SINGLE_POINT_ENERGY>  (235) 
0

>  <NONCOV_INTER_ENERGY_QM>  (235) 
0

>  <FF_Energy>  (235) 
14.02

>  <QM_Energy>  (235) 
7.99

>  <source>  (235) 
ETAM_MSM

>  <Index>  (235) 
1250

$$$$
ETAM-pdb1f07-A-LYS-159:MSM-pdb1f07-A-MET-156
     RDKit          3D

 20 18  0  0  0  0  0  0  0  0999 V2000
    1.2485    0.8570    0.0000 C   0  0  0  0  0  0  0  0  0  0  0  0
    1.3117    1.3389    0.8656 H   0  0  0  0  0  0  0  0  0  0  0  0
    1.2011    1.4990   -0.7559 H   0  0  0  0  0  0  0  0  0  0  0  0
    2.1461    0.2504   -0.1204 H   0  0  0  0  0  0  0  0  0  0  0  0
    0.0000    0.0000    0.0000 C   0  0  0  0  0  0  0  0  0  0  0  0
    0.0007   -0.5848   -0.8162 H   0  0  0  0  0  0  0  0  0  0  0  0
    0.0013   -0.5854    0.8163 H   0  0  0  0  0  0  0  0  0  0  0  0
   -1.2485    0.8264    0.0000 N   0  0  0  0  0  4  0  0  0  0  0  0
   -1.6151    0.8658    0.9280 H   0  0  0  0  0  0  0  0  0  0  0  0
   -1.0311    1.7471   -0.3163 H   0  0  0  0  0  0  0  0  0  0  0  0
   -1.9181    0.4075   -0.6112 H   0  0  0  0  0  0  0  0  0  0  0  0
   -2.8367   -3.2308    2.4627 C   0  0  0  0  0  0  0  0  0  0  0  0
   -3.2705   -3.5509    1.5922 H   0  0  0  0  0  0  0  0  0  0  0  0
   -3.5095   -3.4460    3.2038 H   0  0  0  0  0  0  0  0  0  0  0  0
   -1.9288   -3.8090    2.6344 H   0  0  0  0  0  0  0  0  0  0  0  0
   -2.5273   -1.4357    2.3925 S   0  0  0  0  0  0  0  0  0  0  0  0
   -1.5542   -1.1928    3.9080 C   0  0  0  0  0  0  0  0  0  0  0  0
   -1.9657   -0.4590    4.4416 H   0  0  0  0  0  0  0  0  0  0  0  0
   -1.5581   -2.0402    4.4327 H   0  0  0  0  0  0  0  0  0  0  0  0
   -0.6209   -0.9505    3.6568 H   0  0  0  0  0  0  0  0  0  0  0  0
  1  5  1  0
  5  8  1  0
  1  2  1  0
  1  3  1  0
  1  4  1  0
  5  6  1  0
  5  7  1  0
  8  9  1  0
  8 10  1  0
  8 11  1  0
 12 16  1  0
 16 17  1  0
 12 13  1  0
 12 14  1  0
 12 15  1  0
 17 18  1  0
 17 19  1  0
 17 20  1  0
M  CHG  1   8   1
M  END
>  <PDB_ID>  (236) 
pdb1f07

>  <RESIDUE_NAME>  (236) 
LYS   MET

>  <FRAG_NAME>  (236) 
ETAM   MSM

>  <FRAG_ATOM_NUM>  (236) 
fragi: 11  fragj: 9

>  <atom.prop.CHAIN_ID>  (236) 
A A A A A A A A A A A Z Z Z Z Z Z Z Z Z

>  <atom.prop.IS_HEAVY_ATOM>  (236) 
1 0 0 0 1 0 0 1 0 0 0 1 0 0 0 1 1 0 0 0

>  <DIFUSE_FUNC_ATOM>  (236) 
n/a

>  <FINAL_SINGLE_POINT_ENERGY>  (236) 
0

>  <NONCOV_INTER_ENERGY_QM>  (236) 
0

>  <FF_Energy>  (236) 
-5.4

>  <QM_Energy>  (236) 
-12.11

>  <source>  (236) 
ETAM_MSM

>  <Index>  (236) 
1267

$$$$
ETAM-pdb2fty-D-LYS-430:MSM-pdb2fty-B-MET-418
     RDKit          3D

 20 18  0  0  0  0  0  0  0  0999 V2000
    1.2382    0.8876    0.0000 C   0  0  0  0  0  0  0  0  0  0  0  0
    1.1342    1.5793    0.7107 H   0  0  0  0  0  0  0  0  0  0  0  0
    1.3168    1.3246   -0.8931 H   0  0  0  0  0  0  0  0  0  0  0  0
    2.1515    0.3253    0.1943 H   0  0  0  0  0  0  0  0  0  0  0  0
    0.0000    0.0000    0.0000 C   0  0  0  0  0  0  0  0  0  0  0  0
    0.0120   -0.5735   -0.8166 H   0  0  0  0  0  0  0  0  0  0  0  0
    0.0120   -0.5734    0.8165 H   0  0  0  0  0  0  0  0  0  0  0  0
   -1.2382    0.8292   -0.0000 N   0  0  0  0  0  4  0  0  0  0  0  0
   -1.6287    0.8407    0.9202 H   0  0  0  0  0  0  0  0  0  0  0  0
   -1.0122    1.7618   -0.2802 H   0  0  0  0  0  0  0  0  0  0  0  0
   -1.8988    0.4371   -0.6400 H   0  0  0  0  0  0  0  0  0  0  0  0
   -4.0896   -1.6346   -3.8320 C   0  0  0  0  0  0  0  0  0  0  0  0
   -4.8646   -2.0204   -3.2586 H   0  0  0  0  0  0  0  0  0  0  0  0
   -3.9551   -2.3489   -4.5733 H   0  0  0  0  0  0  0  0  0  0  0  0
   -4.4385   -0.7154   -4.3025 H   0  0  0  0  0  0  0  0  0  0  0  0
   -2.5933   -1.4673   -2.8391 S   0  0  0  0  0  0  0  0  0  0  0  0
   -1.3758   -0.9284   -4.0460 C   0  0  0  0  0  0  0  0  0  0  0  0
   -1.4331   -1.5086   -4.8580 H   0  0  0  0  0  0  0  0  0  0  0  0
   -1.5577    0.0213   -4.3005 H   0  0  0  0  0  0  0  0  0  0  0  0
   -0.4602   -0.9980   -3.6493 H   0  0  0  0  0  0  0  0  0  0  0  0
  1  5  1  0
  5  8  1  0
  1  2  1  0
  1  3  1  0
  1  4  1  0
  5  6  1  0
  5  7  1  0
  8  9  1  0
  8 10  1  0
  8 11  1  0
 12 16  1  0
 16 17  1  0
 12 13  1  0
 12 14  1  0
 12 15  1  0
 17 18  1  0
 17 19  1  0
 17 20  1  0
M  CHG  1   8   1
M  END
>  <PDB_ID>  (237) 
pdb2fty

>  <RESIDUE_NAME>  (237) 
LYS   MET

>  <FRAG_NAME>  (237) 
ETAM   MSM

>  <FRAG_ATOM_NUM>  (237) 
fragi: 11  fragj: 9

>  <atom.prop.CHAIN_ID>  (237) 
A A A A A A A A A A A Z Z Z Z Z Z Z Z Z

>  <atom.prop.IS_HEAVY_ATOM>  (237) 
1 0 0 0 1 0 0 1 0 0 0 1 0 0 0 1 1 0 0 0

>  <DIFUSE_FUNC_ATOM>  (237) 
n/a

>  <FINAL_SINGLE_POINT_ENERGY>  (237) 
0

>  <NONCOV_INTER_ENERGY_QM>  (237) 
0

>  <FF_Energy>  (237) 
-4.73

>  <QM_Energy>  (237) 
-11.52

>  <source>  (237) 
ETAM_MSM

>  <Index>  (237) 
1273

$$$$
ETAM-pdb2fty-A-LYS-430:MSM-pdb2fty-C-MET-418
     RDKit          3D

 20 18  0  0  0  0  0  0  0  0999 V2000
    1.2177    0.9210   -0.0000 C   0  0  0  0  0  0  0  0  0  0  0  0
    1.0037    1.7277    0.5368 H   0  0  0  0  0  0  0  0  0  0  0  0
    1.4269    1.1685   -0.9380 H   0  0  0  0  0  0  0  0  0  0  0  0
    2.0858    0.4273    0.4366 H   0  0  0  0  0  0  0  0  0  0  0  0
    0.0000    0.0000    0.0000 C   0  0  0  0  0  0  0  0  0  0  0  0
    0.0206   -0.5582   -0.8161 H   0  0  0  0  0  0  0  0  0  0  0  0
    0.0204   -0.5579    0.8161 H   0  0  0  0  0  0  0  0  0  0  0  0
   -1.2177    0.8421    0.0000 N   0  0  0  0  0  4  0  0  0  0  0  0
   -1.5712    0.9203   -0.9334 H   0  0  0  0  0  0  0  0  0  0  0  0
   -1.9145    0.4245    0.5847 H   0  0  0  0  0  0  0  0  0  0  0  0
   -0.9956    1.7533    0.3480 H   0  0  0  0  0  0  0  0  0  0  0  0
   -3.9968   -1.8784   -3.5380 C   0  0  0  0  0  0  0  0  0  0  0  0
   -4.8126   -2.2298   -2.9988 H   0  0  0  0  0  0  0  0  0  0  0  0
   -3.7971   -2.6476   -4.2065 H   0  0  0  0  0  0  0  0  0  0  0  0
   -4.3273   -1.0142   -4.1143 H   0  0  0  0  0  0  0  0  0  0  0  0
   -2.5919   -1.5897   -2.4573 S   0  0  0  0  0  0  0  0  0  0  0  0
   -1.2988   -1.2148   -3.6460 C   0  0  0  0  0  0  0  0  0  0  0  0
   -1.4867   -0.3317   -4.0758 H   0  0  0  0  0  0  0  0  0  0  0  0
   -0.4161   -1.1763   -3.1772 H   0  0  0  0  0  0  0  0  0  0  0  0
   -1.2738   -1.9283   -4.3473 H   0  0  0  0  0  0  0  0  0  0  0  0
  1  5  1  0
  5  8  1  0
  1  2  1  0
  1  3  1  0
  1  4  1  0
  5  6  1  0
  5  7  1  0
  8  9  1  0
  8 10  1  0
  8 11  1  0
 12 16  1  0
 16 17  1  0
 12 13  1  0
 12 14  1  0
 12 15  1  0
 17 18  1  0
 17 19  1  0
 17 20  1  0
M  CHG  1   8   1
M  END
>  <PDB_ID>  (238) 
pdb2fty

>  <RESIDUE_NAME>  (238) 
LYS   MET

>  <FRAG_NAME>  (238) 
ETAM   MSM

>  <FRAG_ATOM_NUM>  (238) 
fragi: 11  fragj: 9

>  <atom.prop.CHAIN_ID>  (238) 
A A A A A A A A A A A Z Z Z Z Z Z Z Z Z

>  <atom.prop.IS_HEAVY_ATOM>  (238) 
1 0 0 0 1 0 0 1 0 0 0 1 0 0 0 1 1 0 0 0

>  <DIFUSE_FUNC_ATOM>  (238) 
n/a

>  <FINAL_SINGLE_POINT_ENERGY>  (238) 
0

>  <NONCOV_INTER_ENERGY_QM>  (238) 
0

>  <FF_Energy>  (238) 
-4.91

>  <QM_Energy>  (238) 
-10.62

>  <source>  (238) 
ETAM_MSM

>  <Index>  (238) 
1274

$$$$
ETAM-pdb2fty-B-LYS-430:MSM-pdb2fty-D-MET-418
     RDKit          3D

 20 18  0  0  0  0  0  0  0  0999 V2000
    1.2518    0.8642   -0.0000 C   0  0  0  0  0  0  0  0  0  0  0  0
    1.1143    1.6260    0.6180 H   0  0  0  0  0  0  0  0  0  0  0  0
    1.4216    1.1803   -0.9232 H   0  0  0  0  0  0  0  0  0  0  0  0
    2.1161    0.2925    0.3381 H   0  0  0  0  0  0  0  0  0  0  0  0
    0.0000    0.0000    0.0000 C   0  0  0  0  0  0  0  0  0  0  0  0
    0.0164   -0.5931   -0.8163 H   0  0  0  0  0  0  0  0  0  0  0  0
    0.0157   -0.5930    0.8163 H   0  0  0  0  0  0  0  0  0  0  0  0
   -1.2518    0.7957   -0.0000 N   0  0  0  0  0  4  0  0  0  0  0  0
   -2.0398    0.1789   -0.0073 H   0  0  0  0  0  0  0  0  0  0  0  0
   -1.2842    1.3674    0.8204 H   0  0  0  0  0  0  0  0  0  0  0  0
   -1.2778    1.3784   -0.8128 H   0  0  0  0  0  0  0  0  0  0  0  0
   -4.0945   -1.3195   -3.8941 C   0  0  0  0  0  0  0  0  0  0  0  0
   -4.8970   -1.6354   -3.3455 H   0  0  0  0  0  0  0  0  0  0  0  0
   -3.9459   -2.0346   -4.6099 H   0  0  0  0  0  0  0  0  0  0  0  0
   -4.3601   -0.3849   -4.3881 H   0  0  0  0  0  0  0  0  0  0  0  0
   -2.6265   -1.1552   -2.8418 S   0  0  0  0  0  0  0  0  0  0  0  0
   -1.3665   -0.6970   -4.0454 C   0  0  0  0  0  0  0  0  0  0  0  0
   -0.6561   -1.3995   -4.0640 H   0  0  0  0  0  0  0  0  0  0  0  0
   -1.7859   -0.6197   -4.9499 H   0  0  0  0  0  0  0  0  0  0  0  0
   -0.9650    0.1801   -3.7858 H   0  0  0  0  0  0  0  0  0  0  0  0
  1  5  1  0
  5  8  1  0
  1  2  1  0
  1  3  1  0
  1  4  1  0
  5  6  1  0
  5  7  1  0
  8  9  1  0
  8 10  1  0
  8 11  1  0
 12 16  1  0
 16 17  1  0
 12 13  1  0
 12 14  1  0
 12 15  1  0
 17 18  1  0
 17 19  1  0
 17 20  1  0
M  CHG  1   8   1
M  END
>  <PDB_ID>  (239) 
pdb2fty

>  <RESIDUE_NAME>  (239) 
LYS   MET

>  <FRAG_NAME>  (239) 
ETAM   MSM

>  <FRAG_ATOM_NUM>  (239) 
fragi: 11  fragj: 9

>  <atom.prop.CHAIN_ID>  (239) 
A A A A A A A A A A A Z Z Z Z Z Z Z Z Z

>  <atom.prop.IS_HEAVY_ATOM>  (239) 
1 0 0 0 1 0 0 1 0 0 0 1 0 0 0 1 1 0 0 0

>  <DIFUSE_FUNC_ATOM>  (239) 
n/a

>  <FINAL_SINGLE_POINT_ENERGY>  (239) 
0

>  <NONCOV_INTER_ENERGY_QM>  (239) 
0

>  <FF_Energy>  (239) 
-4.88

>  <QM_Energy>  (239) 
-10.77

>  <source>  (239) 
ETAM_MSM

>  <Index>  (239) 
1276

$$$$
ETAM-pdb2fv2-A-LYS-199:MSM-pdb2fv2-A-MET-195
     RDKit          3D

 20 18  0  0  0  0  0  0  0  0999 V2000
    1.2600    0.8720   -0.0000 C   0  0  0  0  0  0  0  0  0  0  0  0
    1.2318    1.4664   -0.7973 H   0  0  0  0  0  0  0  0  0  0  0  0
    2.0556    0.2762   -0.0397 H   0  0  0  0  0  0  0  0  0  0  0  0
    1.3297    1.4904    0.8949 H   0  0  0  0  0  0  0  0  0  0  0  0
    0.0000    0.0000    0.0000 C   0  0  0  0  0  0  0  0  0  0  0  0
    0.0152   -0.5869   -0.8165 H   0  0  0  0  0  0  0  0  0  0  0  0
    0.0149   -0.5870    0.8164 H   0  0  0  0  0  0  0  0  0  0  0  0
   -1.2600    0.8057   -0.0000 N   0  0  0  0  0  4  0  0  0  0  0  0
   -2.0433    0.1897   -0.0642 H   0  0  0  0  0  0  0  0  0  0  0  0
   -1.3131    1.3313    0.8468 H   0  0  0  0  0  0  0  0  0  0  0  0
   -1.2532    1.4253   -0.7828 H   0  0  0  0  0  0  0  0  0  0  0  0
   -3.1532    3.7861   -0.6412 C   0  0  0  0  0  0  0  0  0  0  0  0
   -3.1463    3.3603    0.2955 H   0  0  0  0  0  0  0  0  0  0  0  0
   -4.0313    3.4651   -1.0726 H   0  0  0  0  0  0  0  0  0  0  0  0
   -3.2007    4.8690   -0.5265 H   0  0  0  0  0  0  0  0  0  0  0  0
   -1.7251    3.2094   -1.6091 S   0  0  0  0  0  0  0  0  0  0  0  0
   -2.4116    3.2621   -3.3095 C   0  0  0  0  0  0  0  0  0  0  0  0
   -1.6934    3.0023   -3.9461 H   0  0  0  0  0  0  0  0  0  0  0  0
   -3.1713    2.6229   -3.3619 H   0  0  0  0  0  0  0  0  0  0  0  0
   -2.7219    4.1881   -3.4947 H   0  0  0  0  0  0  0  0  0  0  0  0
  1  5  1  0
  5  8  1  0
  1  2  1  0
  1  3  1  0
  1  4  1  0
  5  6  1  0
  5  7  1  0
  8  9  1  0
  8 10  1  0
  8 11  1  0
 12 16  1  0
 16 17  1  0
 12 13  1  0
 12 14  1  0
 12 15  1  0
 17 18  1  0
 17 19  1  0
 17 20  1  0
M  CHG  1   8   1
M  END
>  <PDB_ID>  (240) 
pdb2fv2

>  <RESIDUE_NAME>  (240) 
LYS   MET

>  <FRAG_NAME>  (240) 
ETAM   MSM

>  <FRAG_ATOM_NUM>  (240) 
fragi: 11  fragj: 9

>  <atom.prop.CHAIN_ID>  (240) 
A A A A A A A A A A A Z Z Z Z Z Z Z Z Z

>  <atom.prop.IS_HEAVY_ATOM>  (240) 
1 0 0 0 1 0 0 1 0 0 0 1 0 0 0 1 1 0 0 0

>  <DIFUSE_FUNC_ATOM>  (240) 
n/a

>  <FINAL_SINGLE_POINT_ENERGY>  (240) 
0

>  <NONCOV_INTER_ENERGY_QM>  (240) 
0

>  <FF_Energy>  (240) 
-2.03

>  <QM_Energy>  (240) 
-13.41

>  <source>  (240) 
ETAM_MSM

>  <Index>  (240) 
1288

$$$$
ETAM-pdb2fy2-A-LYS-64:MSM-pdb2fy2-A-MET-516
     RDKit          3D

 20 18  0  0  0  0  0  0  0  0999 V2000
    1.2357    0.8730    0.0000 C   0  0  0  0  0  0  0  0  0  0  0  0
    1.1876    1.4898    0.7749 H   0  0  0  0  0  0  0  0  0  0  0  0
    1.2661    1.3785   -0.8523 H   0  0  0  0  0  0  0  0  0  0  0  0
    2.1300    0.2558    0.0861 H   0  0  0  0  0  0  0  0  0  0  0  0
    0.0000    0.0000    0.0000 C   0  0  0  0  0  0  0  0  0  0  0  0
    0.0116   -0.5827   -0.8165 H   0  0  0  0  0  0  0  0  0  0  0  0
    0.0111   -0.5827    0.8161 H   0  0  0  0  0  0  0  0  0  0  0  0
   -1.2357    0.8178   -0.0000 N   0  0  0  0  0  4  0  0  0  0  0  0
   -2.0338    0.2189    0.0805 H   0  0  0  0  0  0  0  0  0  0  0  0
   -1.2169    1.4523    0.7739 H   0  0  0  0  0  0  0  0  0  0  0  0
   -1.2939    1.3362   -0.8536 H   0  0  0  0  0  0  0  0  0  0  0  0
   -2.6688    3.4731    0.3349 C   0  0  0  0  0  0  0  0  0  0  0  0
   -2.9308    2.7500   -0.3299 H   0  0  0  0  0  0  0  0  0  0  0  0
   -1.8562    3.9478   -0.0500 H   0  0  0  0  0  0  0  0  0  0  0  0
   -3.4883    4.1859    0.4266 H   0  0  0  0  0  0  0  0  0  0  0  0
   -2.2681    2.7371    1.9458 S   0  0  0  0  0  0  0  0  0  0  0  0
   -3.8893    2.2285    2.5182 C   0  0  0  0  0  0  0  0  0  0  0  0
   -4.0868    2.6661    3.3967 H   0  0  0  0  0  0  0  0  0  0  0  0
   -4.5812    2.5000    1.8481 H   0  0  0  0  0  0  0  0  0  0  0  0
   -3.9083    1.2337    2.6307 H   0  0  0  0  0  0  0  0  0  0  0  0
  1  5  1  0
  5  8  1  0
  1  2  1  0
  1  3  1  0
  1  4  1  0
  5  6  1  0
  5  7  1  0
  8  9  1  0
  8 10  1  0
  8 11  1  0
 12 16  1  0
 16 17  1  0
 12 13  1  0
 12 14  1  0
 12 15  1  0
 17 18  1  0
 17 19  1  0
 17 20  1  0
M  CHG  1   8   1
M  END
>  <PDB_ID>  (241) 
pdb2fy2

>  <RESIDUE_NAME>  (241) 
LYS   MET

>  <FRAG_NAME>  (241) 
ETAM   MSM

>  <FRAG_ATOM_NUM>  (241) 
fragi: 11  fragj: 9

>  <atom.prop.CHAIN_ID>  (241) 
A A A A A A A A A A A Z Z Z Z Z Z Z Z Z

>  <atom.prop.IS_HEAVY_ATOM>  (241) 
1 0 0 0 1 0 0 1 0 0 0 1 0 0 0 1 1 0 0 0

>  <DIFUSE_FUNC_ATOM>  (241) 
n/a

>  <FINAL_SINGLE_POINT_ENERGY>  (241) 
0

>  <NONCOV_INTER_ENERGY_QM>  (241) 
0

>  <FF_Energy>  (241) 
0.88

>  <QM_Energy>  (241) 
-10.23

>  <source>  (241) 
ETAM_MSM

>  <Index>  (241) 
1305

$$$$
ETAM-pdb2fys-A-LYS-71:MSM-pdb2fys-A-MET-331
     RDKit          3D

 20 18  0  0  0  0  0  0  0  0999 V2000
    1.2517    0.8602   -0.0000 C   0  0  0  0  0  0  0  0  0  0  0  0
    1.2530    1.4173    0.8230 H   0  0  0  0  0  0  0  0  0  0  0  0
    1.2409    1.4349   -0.8095 H   0  0  0  0  0  0  0  0  0  0  0  0
    2.1502    0.2431   -0.0130 H   0  0  0  0  0  0  0  0  0  0  0  0
    0.0000    0.0000    0.0000 C   0  0  0  0  0  0  0  0  0  0  0  0
    0.0087   -0.5885   -0.8160 H   0  0  0  0  0  0  0  0  0  0  0  0
    0.0087   -0.5886    0.8164 H   0  0  0  0  0  0  0  0  0  0  0  0
   -1.2517    0.8107   -0.0000 N   0  0  0  0  0  4  0  0  0  0  0  0
   -1.1813    1.5259   -0.6937 H   0  0  0  0  0  0  0  0  0  0  0  0
   -2.0289    0.2176   -0.2055 H   0  0  0  0  0  0  0  0  0  0  0  0
   -1.3757    1.2265    0.9002 H   0  0  0  0  0  0  0  0  0  0  0  0
   -1.8292    4.0667   -3.2485 C   0  0  0  0  0  0  0  0  0  0  0  0
   -2.8453    4.1769   -3.1568 H   0  0  0  0  0  0  0  0  0  0  0  0
   -1.5888    4.4993   -4.1484 H   0  0  0  0  0  0  0  0  0  0  0  0
   -1.3470    4.6336   -2.4521 H   0  0  0  0  0  0  0  0  0  0  0  0
   -1.3762    2.3140   -3.2437 S   0  0  0  0  0  0  0  0  0  0  0  0
   -2.7789    1.6037   -2.3680 C   0  0  0  0  0  0  0  0  0  0  0  0
   -2.7284    1.8544   -1.4016 H   0  0  0  0  0  0  0  0  0  0  0  0
   -3.6281    1.9561   -2.7608 H   0  0  0  0  0  0  0  0  0  0  0  0
   -2.7560    0.6081   -2.4581 H   0  0  0  0  0  0  0  0  0  0  0  0
  1  5  1  0
  5  8  1  0
  1  2  1  0
  1  3  1  0
  1  4  1  0
  5  6  1  0
  5  7  1  0
  8  9  1  0
  8 10  1  0
  8 11  1  0
 12 16  1  0
 16 17  1  0
 12 13  1  0
 12 14  1  0
 12 15  1  0
 17 18  1  0
 17 19  1  0
 17 20  1  0
M  CHG  1   8   1
M  END
>  <PDB_ID>  (242) 
pdb2fys

>  <RESIDUE_NAME>  (242) 
LYS   MET

>  <FRAG_NAME>  (242) 
ETAM   MSM

>  <FRAG_ATOM_NUM>  (242) 
fragi: 11  fragj: 9

>  <atom.prop.CHAIN_ID>  (242) 
A A A A A A A A A A A Z Z Z Z Z Z Z Z Z

>  <atom.prop.IS_HEAVY_ATOM>  (242) 
1 0 0 0 1 0 0 1 0 0 0 1 0 0 0 1 1 0 0 0

>  <DIFUSE_FUNC_ATOM>  (242) 
n/a

>  <FINAL_SINGLE_POINT_ENERGY>  (242) 
0

>  <NONCOV_INTER_ENERGY_QM>  (242) 
0

>  <FF_Energy>  (242) 
2.56

>  <QM_Energy>  (242) 
-5.46

>  <source>  (242) 
ETAM_MSM

>  <Index>  (242) 
1310

$$$$
ETAM-pdb1f28-B-LYS-55:MSM-pdb1f28-B-MET-293
     RDKit          3D

 20 18  0  0  0  0  0  0  0  0999 V2000
    1.2461    0.8757    0.0000 C   0  0  0  0  0  0  0  0  0  0  0  0
    1.2460    1.4246   -0.8308 H   0  0  0  0  0  0  0  0  0  0  0  0
    2.0462    0.2839    0.0207 H   0  0  0  0  0  0  0  0  0  0  0  0
    1.2709    1.5397    0.8640 H   0  0  0  0  0  0  0  0  0  0  0  0
    0.0000    0.0000    0.0000 C   0  0  0  0  0  0  0  0  0  0  0  0
    0.0059   -0.5761   -0.8157 H   0  0  0  0  0  0  0  0  0  0  0  0
    0.0058   -0.5758    0.8161 H   0  0  0  0  0  0  0  0  0  0  0  0
   -1.2461    0.8338    0.0000 N   0  0  0  0  0  4  0  0  0  0  0  0
   -1.3986    1.1921    0.9193 H   0  0  0  0  0  0  0  0  0  0  0  0
   -1.1341    1.5884   -0.6435 H   0  0  0  0  0  0  0  0  0  0  0  0
   -2.0185    0.2661   -0.2755 H   0  0  0  0  0  0  0  0  0  0  0  0
   -0.7814    0.6724   -5.1977 C   0  0  0  0  0  0  0  0  0  0  0  0
   -0.5341    1.0060   -6.1385 H   0  0  0  0  0  0  0  0  0  0  0  0
   -0.7684    1.5118   -4.6040 H   0  0  0  0  0  0  0  0  0  0  0  0
   -1.7993    0.2835   -5.2255 H   0  0  0  0  0  0  0  0  0  0  0  0
    0.4041   -0.5381   -4.6176 S   0  0  0  0  0  0  0  0  0  0  0  0
    0.8895    0.1546   -3.0878 C   0  0  0  0  0  0  0  0  0  0  0  0
    0.4092    1.0251   -2.9213 H   0  0  0  0  0  0  0  0  0  0  0  0
    0.6750   -0.4725   -2.3274 H   0  0  0  0  0  0  0  0  0  0  0  0
    1.8819    0.3352   -3.0764 H   0  0  0  0  0  0  0  0  0  0  0  0
  1  5  1  0
  5  8  1  0
  1  2  1  0
  1  3  1  0
  1  4  1  0
  5  6  1  0
  5  7  1  0
  8  9  1  0
  8 10  1  0
  8 11  1  0
 12 16  1  0
 16 17  1  0
 12 13  1  0
 12 14  1  0
 12 15  1  0
 17 18  1  0
 17 19  1  0
 17 20  1  0
M  CHG  1   8   1
M  END
>  <PDB_ID>  (243) 
pdb1f28

>  <RESIDUE_NAME>  (243) 
LYS   MET

>  <FRAG_NAME>  (243) 
ETAM   MSM

>  <FRAG_ATOM_NUM>  (243) 
fragi: 11  fragj: 9

>  <atom.prop.CHAIN_ID>  (243) 
A A A A A A A A A A A Z Z Z Z Z Z Z Z Z

>  <atom.prop.IS_HEAVY_ATOM>  (243) 
1 0 0 0 1 0 0 1 0 0 0 1 0 0 0 1 1 0 0 0

>  <DIFUSE_FUNC_ATOM>  (243) 
n/a

>  <FINAL_SINGLE_POINT_ENERGY>  (243) 
0

>  <NONCOV_INTER_ENERGY_QM>  (243) 
0

>  <FF_Energy>  (243) 
12.93

>  <QM_Energy>  (243) 
3.17

>  <source>  (243) 
ETAM_MSM

>  <Index>  (243) 
1312

$$$$
ETAM-pdb2fys-A-LYS-162:MSM-pdb2fys-A-MET-106
     RDKit          3D

 20 18  0  0  0  0  0  0  0  0999 V2000
    1.2389    0.8777    0.0000 C   0  0  0  0  0  0  0  0  0  0  0  0
    1.1706    1.5286   -0.7559 H   0  0  0  0  0  0  0  0  0  0  0  0
    2.0422    0.2975   -0.1279 H   0  0  0  0  0  0  0  0  0  0  0  0
    1.3590    1.4364    0.9282 H   0  0  0  0  0  0  0  0  0  0  0  0
    0.0000    0.0000    0.0000 C   0  0  0  0  0  0  0  0  0  0  0  0
    0.0056   -0.5746   -0.8165 H   0  0  0  0  0  0  0  0  0  0  0  0
    0.0053   -0.5751    0.8159 H   0  0  0  0  0  0  0  0  0  0  0  0
   -1.2389    0.8357   -0.0000 N   0  0  0  0  0  4  0  0  0  0  0  0
   -0.9899    1.7918   -0.1417 H   0  0  0  0  0  0  0  0  0  0  0  0
   -1.8409    0.5310   -0.7365 H   0  0  0  0  0  0  0  0  0  0  0  0
   -1.7032    0.7346    0.8778 H   0  0  0  0  0  0  0  0  0  0  0  0
   -1.4859    5.3836   -1.8038 C   0  0  0  0  0  0  0  0  0  0  0  0
   -1.4210    5.2062   -2.8140 H   0  0  0  0  0  0  0  0  0  0  0  0
   -0.5147    5.5054   -1.4894 H   0  0  0  0  0  0  0  0  0  0  0  0
   -2.0195    6.3218   -1.6515 H   0  0  0  0  0  0  0  0  0  0  0  0
   -2.2554    3.9843   -0.9609 S   0  0  0  0  0  0  0  0  0  0  0  0
   -1.9441    4.4279    0.7457 C   0  0  0  0  0  0  0  0  0  0  0  0
   -2.3864    3.7648    1.3520 H   0  0  0  0  0  0  0  0  0  0  0  0
   -0.9576    4.4275    0.9184 H   0  0  0  0  0  0  0  0  0  0  0  0
   -2.3123    5.3409    0.9282 H   0  0  0  0  0  0  0  0  0  0  0  0
  1  5  1  0
  5  8  1  0
  1  2  1  0
  1  3  1  0
  1  4  1  0
  5  6  1  0
  5  7  1  0
  8  9  1  0
  8 10  1  0
  8 11  1  0
 12 16  1  0
 16 17  1  0
 12 13  1  0
 12 14  1  0
 12 15  1  0
 17 18  1  0
 17 19  1  0
 17 20  1  0
M  CHG  1   8   1
M  END
>  <PDB_ID>  (244) 
pdb2fys

>  <RESIDUE_NAME>  (244) 
LYS   MET

>  <FRAG_NAME>  (244) 
ETAM   MSM

>  <FRAG_ATOM_NUM>  (244) 
fragi: 11  fragj: 9

>  <atom.prop.CHAIN_ID>  (244) 
A A A A A A A A A A A Z Z Z Z Z Z Z Z Z

>  <atom.prop.IS_HEAVY_ATOM>  (244) 
1 0 0 0 1 0 0 1 0 0 0 1 0 0 0 1 1 0 0 0

>  <DIFUSE_FUNC_ATOM>  (244) 
n/a

>  <FINAL_SINGLE_POINT_ENERGY>  (244) 
0

>  <NONCOV_INTER_ENERGY_QM>  (244) 
0

>  <FF_Energy>  (244) 
-4.82

>  <QM_Energy>  (244) 
-11.91

>  <source>  (244) 
ETAM_MSM

>  <Index>  (244) 
1314

$$$$
ETAM-pdb1f4v-B-LYS-109:MSM-pdb1f4v-A-MET-129
     RDKit          3D

 20 18  0  0  0  0  0  0  0  0999 V2000
    1.2286    0.8810   -0.0000 C   0  0  0  0  0  0  0  0  0  0  0  0
    1.2042    1.4696    0.8061 H   0  0  0  0  0  0  0  0  0  0  0  0
    1.2253    1.4408   -0.8268 H   0  0  0  0  0  0  0  0  0  0  0  0
    2.1529    0.3038    0.0228 H   0  0  0  0  0  0  0  0  0  0  0  0
    0.0000    0.0000    0.0000 C   0  0  0  0  0  0  0  0  0  0  0  0
    0.0087   -0.5747   -0.8157 H   0  0  0  0  0  0  0  0  0  0  0  0
    0.0085   -0.5754    0.8163 H   0  0  0  0  0  0  0  0  0  0  0  0
   -1.2286    0.8328   -0.0000 N   0  0  0  0  0  4  0  0  0  0  0  0
   -1.6294    0.8367   -0.9168 H   0  0  0  0  0  0  0  0  0  0  0  0
   -1.8879    0.4542    0.6502 H   0  0  0  0  0  0  0  0  0  0  0  0
   -0.9971    1.7691    0.2663 H   0  0  0  0  0  0  0  0  0  0  0  0
   -0.1631    4.1829   -0.0737 C   0  0  0  0  0  0  0  0  0  0  0  0
    0.8170    3.8248   -0.0136 H   0  0  0  0  0  0  0  0  0  0  0  0
   -0.5051    4.0850    0.9085 H   0  0  0  0  0  0  0  0  0  0  0  0
   -0.1004    5.2501   -0.2865 H   0  0  0  0  0  0  0  0  0  0  0  0
   -1.1213    3.2842   -1.1916 S   0  0  0  0  0  0  0  0  0  0  0  0
   -0.1806    3.3671   -2.7095 C   0  0  0  0  0  0  0  0  0  0  0  0
    0.4279    2.5736   -2.7735 H   0  0  0  0  0  0  0  0  0  0  0  0
   -0.8041    3.3696   -3.4936 H   0  0  0  0  0  0  0  0  0  0  0  0
    0.3676    4.2053   -2.7218 H   0  0  0  0  0  0  0  0  0  0  0  0
  1  5  1  0
  5  8  1  0
  1  2  1  0
  1  3  1  0
  1  4  1  0
  5  6  1  0
  5  7  1  0
  8  9  1  0
  8 10  1  0
  8 11  1  0
 12 16  1  0
 16 17  1  0
 12 13  1  0
 12 14  1  0
 12 15  1  0
 17 18  1  0
 17 19  1  0
 17 20  1  0
M  CHG  1   8   1
M  END
>  <PDB_ID>  (245) 
pdb1f4v

>  <RESIDUE_NAME>  (245) 
LYS   MET

>  <FRAG_NAME>  (245) 
ETAM   MSM

>  <FRAG_ATOM_NUM>  (245) 
fragi: 11  fragj: 9

>  <atom.prop.CHAIN_ID>  (245) 
A A A A A A A A A A A Z Z Z Z Z Z Z Z Z

>  <atom.prop.IS_HEAVY_ATOM>  (245) 
1 0 0 0 1 0 0 1 0 0 0 1 0 0 0 1 1 0 0 0

>  <DIFUSE_FUNC_ATOM>  (245) 
n/a

>  <FINAL_SINGLE_POINT_ENERGY>  (245) 
0

>  <NONCOV_INTER_ENERGY_QM>  (245) 
0

>  <FF_Energy>  (245) 
6.27

>  <QM_Energy>  (245) 
-3.69

>  <source>  (245) 
ETAM_MSM

>  <Index>  (245) 
1323

$$$$
ETAM-pdb1f4l-A-LYS-316:MSM-pdb1f4l-A-MET-200
     RDKit          3D

 20 18  0  0  0  0  0  0  0  0999 V2000
    1.2450    0.9140    0.0000 C   0  0  0  0  0  0  0  0  0  0  0  0
    1.2917    1.3672    0.8570 H   0  0  0  0  0  0  0  0  0  0  0  0
    1.1897    1.5054   -0.7674 H   0  0  0  0  0  0  0  0  0  0  0  0
    2.1052    0.2535   -0.1094 H   0  0  0  0  0  0  0  0  0  0  0  0
    0.0000    0.0000    0.0000 C   0  0  0  0  0  0  0  0  0  0  0  0
    0.0399   -0.5787   -0.8160 H   0  0  0  0  0  0  0  0  0  0  0  0
    0.0402   -0.5791    0.8160 H   0  0  0  0  0  0  0  0  0  0  0  0
   -1.2450    0.7850    0.0000 N   0  0  0  0  0  4  0  0  0  0  0  0
   -1.4744    1.0587    0.9366 H   0  0  0  0  0  0  0  0  0  0  0  0
   -1.1289    1.6060   -0.5626 H   0  0  0  0  0  0  0  0  0  0  0  0
   -1.9940    0.2337   -0.3733 H   0  0  0  0  0  0  0  0  0  0  0  0
   -1.8731    5.2566   -0.4233 C   0  0  0  0  0  0  0  0  0  0  0  0
   -1.5331    5.2533    0.5699 H   0  0  0  0  0  0  0  0  0  0  0  0
   -2.8347    4.8470   -0.3279 H   0  0  0  0  0  0  0  0  0  0  0  0
   -1.9935    6.2984   -0.7204 H   0  0  0  0  0  0  0  0  0  0  0  0
   -0.8407    4.2295   -1.4544 S   0  0  0  0  0  0  0  0  0  0  0  0
    0.7862    4.9209   -1.1529 C   0  0  0  0  0  0  0  0  0  0  0  0
    1.2801    5.0044   -2.0193 H   0  0  0  0  0  0  0  0  0  0  0  0
    0.6931    5.8252   -0.7350 H   0  0  0  0  0  0  0  0  0  0  0  0
    1.2962    4.3205   -0.5355 H   0  0  0  0  0  0  0  0  0  0  0  0
  1  5  1  0
  5  8  1  0
  1  2  1  0
  1  3  1  0
  1  4  1  0
  5  6  1  0
  5  7  1  0
  8  9  1  0
  8 10  1  0
  8 11  1  0
 12 16  1  0
 16 17  1  0
 12 13  1  0
 12 14  1  0
 12 15  1  0
 17 18  1  0
 17 19  1  0
 17 20  1  0
M  CHG  1   8   1
M  END
>  <PDB_ID>  (246) 
pdb1f4l

>  <RESIDUE_NAME>  (246) 
LYS   MET

>  <FRAG_NAME>  (246) 
ETAM   MSM

>  <FRAG_ATOM_NUM>  (246) 
fragi: 11  fragj: 9

>  <atom.prop.CHAIN_ID>  (246) 
A A A A A A A A A A A Z Z Z Z Z Z Z Z Z

>  <atom.prop.IS_HEAVY_ATOM>  (246) 
1 0 0 0 1 0 0 1 0 0 0 1 0 0 0 1 1 0 0 0

>  <DIFUSE_FUNC_ATOM>  (246) 
n/a

>  <FINAL_SINGLE_POINT_ENERGY>  (246) 
0

>  <NONCOV_INTER_ENERGY_QM>  (246) 
0

>  <FF_Energy>  (246) 
-4.95

>  <QM_Energy>  (246) 
-13.36

>  <source>  (246) 
ETAM_MSM

>  <Index>  (246) 
1327

$$$$
ETAM-pdb2g29-A-LYS-305:MSM-pdb2g29-A-MET-348
     RDKit          3D

 20 18  0  0  0  0  0  0  0  0999 V2000
    1.2933    0.8739    0.0000 C   0  0  0  0  0  0  0  0  0  0  0  0
    1.2727    1.4465   -0.8102 H   0  0  0  0  0  0  0  0  0  0  0  0
    2.0738    0.2604   -0.0235 H   0  0  0  0  0  0  0  0  0  0  0  0
    1.3659    1.5093    0.8827 H   0  0  0  0  0  0  0  0  0  0  0  0
    0.0000    0.0000    0.0000 C   0  0  0  0  0  0  0  0  0  0  0  0
    0.0277   -0.5962   -0.8163 H   0  0  0  0  0  0  0  0  0  0  0  0
    0.0264   -0.5958    0.8161 H   0  0  0  0  0  0  0  0  0  0  0  0
   -1.2933    0.7752   -0.0000 N   0  0  0  0  0  4  0  0  0  0  0  0
   -1.6853    0.7469   -0.9158 H   0  0  0  0  0  0  0  0  0  0  0  0
   -1.9188    0.3575    0.6534 H   0  0  0  0  0  0  0  0  0  0  0  0
   -1.1030    1.7173    0.2622 H   0  0  0  0  0  0  0  0  0  0  0  0
   -5.8663    1.8200   -2.0958 C   0  0  0  0  0  0  0  0  0  0  0  0
   -6.8423    1.5640   -1.9109 H   0  0  0  0  0  0  0  0  0  0  0  0
   -5.3909    0.9397   -2.3222 H   0  0  0  0  0  0  0  0  0  0  0  0
   -5.8389    2.4647   -2.9742 H   0  0  0  0  0  0  0  0  0  0  0  0
   -5.1233    2.5901   -0.6446 S   0  0  0  0  0  0  0  0  0  0  0  0
   -3.4114    2.6995   -1.1587 C   0  0  0  0  0  0  0  0  0  0  0  0
   -2.9061    1.9066   -0.8154 H   0  0  0  0  0  0  0  0  0  0  0  0
   -3.3617    2.7171   -2.1586 H   0  0  0  0  0  0  0  0  0  0  0  0
   -3.0032    3.5363   -0.7919 H   0  0  0  0  0  0  0  0  0  0  0  0
  1  5  1  0
  5  8  1  0
  1  2  1  0
  1  3  1  0
  1  4  1  0
  5  6  1  0
  5  7  1  0
  8  9  1  0
  8 10  1  0
  8 11  1  0
 12 16  1  0
 16 17  1  0
 12 13  1  0
 12 14  1  0
 12 15  1  0
 17 18  1  0
 17 19  1  0
 17 20  1  0
M  CHG  1   8   1
M  END
>  <PDB_ID>  (247) 
pdb2g29

>  <RESIDUE_NAME>  (247) 
LYS   MET

>  <FRAG_NAME>  (247) 
ETAM   MSM

>  <FRAG_ATOM_NUM>  (247) 
fragi: 11  fragj: 9

>  <atom.prop.CHAIN_ID>  (247) 
A A A A A A A A A A A Z Z Z Z Z Z Z Z Z

>  <atom.prop.IS_HEAVY_ATOM>  (247) 
1 0 0 0 1 0 0 1 0 0 0 1 0 0 0 1 1 0 0 0

>  <DIFUSE_FUNC_ATOM>  (247) 
n/a

>  <FINAL_SINGLE_POINT_ENERGY>  (247) 
0

>  <NONCOV_INTER_ENERGY_QM>  (247) 
0

>  <FF_Energy>  (247) 
9.2

>  <QM_Energy>  (247) 
2.76

>  <source>  (247) 
ETAM_MSM

>  <Index>  (247) 
1333

$$$$
ETAM-pdb1f6r-A-LYS-94:MSM-pdb1f6r-A-MET-90
     RDKit          3D

 20 18  0  0  0  0  0  0  0  0999 V2000
    1.2494    0.8774    0.0000 C   0  0  0  0  0  0  0  0  0  0  0  0
    1.8141    0.6202   -0.7756 H   0  0  0  0  0  0  0  0  0  0  0  0
    1.7376    0.7280    0.8518 H   0  0  0  0  0  0  0  0  0  0  0  0
    0.9923    1.9334   -0.0828 H   0  0  0  0  0  0  0  0  0  0  0  0
    0.0000    0.0000    0.0000 C   0  0  0  0  0  0  0  0  0  0  0  0
    0.0059   -0.5746   -0.8164 H   0  0  0  0  0  0  0  0  0  0  0  0
    0.0057   -0.5749    0.8162 H   0  0  0  0  0  0  0  0  0  0  0  0
   -1.2494    0.8358    0.0000 N   0  0  0  0  0  4  0  0  0  0  0  0
   -2.0401    0.2365   -0.0948 H   0  0  0  0  0  0  0  0  0  0  0  0
   -1.3037    1.3375    0.8602 H   0  0  0  0  0  0  0  0  0  0  0  0
   -1.2118    1.4743   -0.7652 H   0  0  0  0  0  0  0  0  0  0  0  0
   -4.1455    3.7093    0.2878 C   0  0  0  0  0  0  0  0  0  0  0  0
   -3.3282    3.6335    0.9586 H   0  0  0  0  0  0  0  0  0  0  0  0
   -4.8845    3.1626    0.8153 H   0  0  0  0  0  0  0  0  0  0  0  0
   -4.4597    4.7530    0.2769 H   0  0  0  0  0  0  0  0  0  0  0  0
   -3.7071    2.7452   -1.3086 S   0  0  0  0  0  0  0  0  0  0  0  0
   -4.8440    3.5509   -2.6311 C   0  0  0  0  0  0  0  0  0  0  0  0
   -4.3802    3.4420   -3.4893 H   0  0  0  0  0  0  0  0  0  0  0  0
   -5.6926    3.0600   -2.5942 H   0  0  0  0  0  0  0  0  0  0  0  0
   -4.9392    4.4912   -2.3691 H   0  0  0  0  0  0  0  0  0  0  0  0
  1  5  1  0
  5  8  1  0
  1  2  1  0
  1  3  1  0
  1  4  1  0
  5  6  1  0
  5  7  1  0
  8  9  1  0
  8 10  1  0
  8 11  1  0
 12 16  1  0
 16 17  1  0
 12 13  1  0
 12 14  1  0
 12 15  1  0
 17 18  1  0
 17 19  1  0
 17 20  1  0
M  CHG  1   8   1
M  END
>  <PDB_ID>  (248) 
pdb1f6r

>  <RESIDUE_NAME>  (248) 
LYS   MET

>  <FRAG_NAME>  (248) 
ETAM   MSM

>  <FRAG_ATOM_NUM>  (248) 
fragi: 11  fragj: 9

>  <atom.prop.CHAIN_ID>  (248) 
A A A A A A A A A A A Z Z Z Z Z Z Z Z Z

>  <atom.prop.IS_HEAVY_ATOM>  (248) 
1 0 0 0 1 0 0 1 0 0 0 1 0 0 0 1 1 0 0 0

>  <DIFUSE_FUNC_ATOM>  (248) 
n/a

>  <FINAL_SINGLE_POINT_ENERGY>  (248) 
0

>  <NONCOV_INTER_ENERGY_QM>  (248) 
0

>  <FF_Energy>  (248) 
-4.56

>  <QM_Energy>  (248) 
-11.83

>  <source>  (248) 
ETAM_MSM

>  <Index>  (248) 
1336

$$$$
ETAM-pdb1f6r-B-LYS-94:MSM-pdb1f6r-B-MET-90
     RDKit          3D

 20 18  0  0  0  0  0  0  0  0999 V2000
    1.2639    0.8595   -0.0000 C   0  0  0  0  0  0  0  0  0  0  0  0
    1.9288    0.4389   -0.6028 H   0  0  0  0  0  0  0  0  0  0  0  0
    1.6075    0.9103    0.9277 H   0  0  0  0  0  0  0  0  0  0  0  0
    1.0441    1.8658   -0.3566 H   0  0  0  0  0  0  0  0  0  0  0  0
    0.0000    0.0000    0.0000 C   0  0  0  0  0  0  0  0  0  0  0  0
    0.0045   -0.5863   -0.8163 H   0  0  0  0  0  0  0  0  0  0  0  0
    0.0045   -0.5858    0.8163 H   0  0  0  0  0  0  0  0  0  0  0  0
   -1.2639    0.8206    0.0000 N   0  0  0  0  0  4  0  0  0  0  0  0
   -1.8280    0.5442   -0.7742 H   0  0  0  0  0  0  0  0  0  0  0  0
   -1.7522    0.6602    0.8537 H   0  0  0  0  0  0  0  0  0  0  0  0
   -1.0226    1.7840   -0.0805 H   0  0  0  0  0  0  0  0  0  0  0  0
   -4.2868    3.9790   -1.0167 C   0  0  0  0  0  0  0  0  0  0  0  0
   -3.6976    3.9580   -0.1482 H   0  0  0  0  0  0  0  0  0  0  0  0
   -5.1934    3.5726   -0.6768 H   0  0  0  0  0  0  0  0  0  0  0  0
   -4.4650    5.0237   -1.2717 H   0  0  0  0  0  0  0  0  0  0  0  0
   -3.5380    2.8233   -2.2948 S   0  0  0  0  0  0  0  0  0  0  0  0
   -4.7561    2.9014   -3.6744 C   0  0  0  0  0  0  0  0  0  0  0  0
   -4.3295    3.3697   -4.4390 H   0  0  0  0  0  0  0  0  0  0  0  0
   -5.0020    1.9723   -3.9246 H   0  0  0  0  0  0  0  0  0  0  0  0
   -5.5523    3.4015   -3.3570 H   0  0  0  0  0  0  0  0  0  0  0  0
  1  5  1  0
  5  8  1  0
  1  2  1  0
  1  3  1  0
  1  4  1  0
  5  6  1  0
  5  7  1  0
  8  9  1  0
  8 10  1  0
  8 11  1  0
 12 16  1  0
 16 17  1  0
 12 13  1  0
 12 14  1  0
 12 15  1  0
 17 18  1  0
 17 19  1  0
 17 20  1  0
M  CHG  1   8   1
M  END
>  <PDB_ID>  (249) 
pdb1f6r

>  <RESIDUE_NAME>  (249) 
LYS   MET

>  <FRAG_NAME>  (249) 
ETAM   MSM

>  <FRAG_ATOM_NUM>  (249) 
fragi: 11  fragj: 9

>  <atom.prop.CHAIN_ID>  (249) 
A A A A A A A A A A A Z Z Z Z Z Z Z Z Z

>  <atom.prop.IS_HEAVY_ATOM>  (249) 
1 0 0 0 1 0 0 1 0 0 0 1 0 0 0 1 1 0 0 0

>  <DIFUSE_FUNC_ATOM>  (249) 
n/a

>  <FINAL_SINGLE_POINT_ENERGY>  (249) 
0

>  <NONCOV_INTER_ENERGY_QM>  (249) 
0

>  <FF_Energy>  (249) 
-4.19

>  <QM_Energy>  (249) 
-9.82

>  <source>  (249) 
ETAM_MSM

>  <Index>  (249) 
1337

$$$$
ETAM-pdb1f6r-F-LYS-94:MSM-pdb1f6r-F-MET-90
     RDKit          3D

 20 18  0  0  0  0  0  0  0  0999 V2000
    1.2573    0.8747    0.0000 C   0  0  0  0  0  0  0  0  0  0  0  0
    1.7822    0.6730   -0.8170 H   0  0  0  0  0  0  0  0  0  0  0  0
    1.7830    0.6713    0.8168 H   0  0  0  0  0  0  0  0  0  0  0  0
    1.0051    1.9351    0.0001 H   0  0  0  0  0  0  0  0  0  0  0  0
    0.0000    0.0000    0.0000 C   0  0  0  0  0  0  0  0  0  0  0  0
    0.0143   -0.5840   -0.8156 H   0  0  0  0  0  0  0  0  0  0  0  0
    0.0136   -0.5838    0.8164 H   0  0  0  0  0  0  0  0  0  0  0  0
   -1.2573    0.8115   -0.0000 N   0  0  0  0  0  4  0  0  0  0  0  0
   -2.0426    0.1981   -0.0538 H   0  0  0  0  0  0  0  0  0  0  0  0
   -1.3023    1.3452    0.8422 H   0  0  0  0  0  0  0  0  0  0  0  0
   -1.2522    1.4235   -0.7882 H   0  0  0  0  0  0  0  0  0  0  0  0
   -4.3721    3.8863    0.5349 C   0  0  0  0  0  0  0  0  0  0  0  0
   -3.6795    3.7540    1.3019 H   0  0  0  0  0  0  0  0  0  0  0  0
   -5.2193    3.3972    0.8930 H   0  0  0  0  0  0  0  0  0  0  0  0
   -4.5978    4.9501    0.4602 H   0  0  0  0  0  0  0  0  0  0  0  0
   -3.7652    3.0237   -1.0008 S   0  0  0  0  0  0  0  0  0  0  0  0
   -4.7789    3.8074   -2.3298 C   0  0  0  0  0  0  0  0  0  0  0  0
   -5.5582    4.2488   -1.9027 H   0  0  0  0  0  0  0  0  0  0  0  0
   -4.2112    4.4716   -2.7992 H   0  0  0  0  0  0  0  0  0  0  0  0
   -5.0753    3.0942   -2.9528 H   0  0  0  0  0  0  0  0  0  0  0  0
  1  5  1  0
  5  8  1  0
  1  2  1  0
  1  3  1  0
  1  4  1  0
  5  6  1  0
  5  7  1  0
  8  9  1  0
  8 10  1  0
  8 11  1  0
 12 16  1  0
 16 17  1  0
 12 13  1  0
 12 14  1  0
 12 15  1  0
 17 18  1  0
 17 19  1  0
 17 20  1  0
M  CHG  1   8   1
M  END
>  <PDB_ID>  (250) 
pdb1f6r

>  <RESIDUE_NAME>  (250) 
LYS   MET

>  <FRAG_NAME>  (250) 
ETAM   MSM

>  <FRAG_ATOM_NUM>  (250) 
fragi: 11  fragj: 9

>  <atom.prop.CHAIN_ID>  (250) 
A A A A A A A A A A A Z Z Z Z Z Z Z Z Z

>  <atom.prop.IS_HEAVY_ATOM>  (250) 
1 0 0 0 1 0 0 1 0 0 0 1 0 0 0 1 1 0 0 0

>  <DIFUSE_FUNC_ATOM>  (250) 
n/a

>  <FINAL_SINGLE_POINT_ENERGY>  (250) 
0

>  <NONCOV_INTER_ENERGY_QM>  (250) 
0

>  <FF_Energy>  (250) 
-4.86

>  <QM_Energy>  (250) 
-11.6

>  <source>  (250) 
ETAM_MSM

>  <Index>  (250) 
1338

$$$$
ETAM-pdb2gak-B-LYS-132:MSM-pdb2gak-B-MET-135
     RDKit          3D

 20 18  0  0  0  0  0  0  0  0999 V2000
    1.2445    0.8805   -0.0000 C   0  0  0  0  0  0  0  0  0  0  0  0
    1.2559    1.4091    0.8379 H   0  0  0  0  0  0  0  0  0  0  0  0
    1.2109    1.4724   -0.7931 H   0  0  0  0  0  0  0  0  0  0  0  0
    2.1453    0.2686   -0.0482 H   0  0  0  0  0  0  0  0  0  0  0  0
    0.0000    0.0000    0.0000 C   0  0  0  0  0  0  0  0  0  0  0  0
    0.0187   -0.5833   -0.8163 H   0  0  0  0  0  0  0  0  0  0  0  0
    0.0176   -0.5838    0.8162 H   0  0  0  0  0  0  0  0  0  0  0  0
   -1.2445    0.8071   -0.0000 N   0  0  0  0  0  4  0  0  0  0  0  0
   -1.1093    1.6298    0.5530 H   0  0  0  0  0  0  0  0  0  0  0  0
   -1.4720    1.0709   -0.9378 H   0  0  0  0  0  0  0  0  0  0  0  0
   -1.9934    0.2665    0.3850 H   0  0  0  0  0  0  0  0  0  0  0  0
    2.7439    4.5260   -1.8516 C   0  0  0  0  0  0  0  0  0  0  0  0
    2.6710    5.1163   -2.6827 H   0  0  0  0  0  0  0  0  0  0  0  0
    2.8504    3.5690   -2.1936 H   0  0  0  0  0  0  0  0  0  0  0  0
    3.6446    4.8041   -1.3042 H   0  0  0  0  0  0  0  0  0  0  0  0
    1.2563    4.6756   -0.8316 S   0  0  0  0  0  0  0  0  0  0  0  0
    1.8551    4.0489    0.7648 C   0  0  0  0  0  0  0  0  0  0  0  0
    1.2849    4.4214    1.4924 H   0  0  0  0  0  0  0  0  0  0  0  0
    1.7995    3.0532    0.7627 H   0  0  0  0  0  0  0  0  0  0  0  0
    2.8010    4.3377    0.8906 H   0  0  0  0  0  0  0  0  0  0  0  0
  1  5  1  0
  5  8  1  0
  1  2  1  0
  1  3  1  0
  1  4  1  0
  5  6  1  0
  5  7  1  0
  8  9  1  0
  8 10  1  0
  8 11  1  0
 12 16  1  0
 16 17  1  0
 12 13  1  0
 12 14  1  0
 12 15  1  0
 17 18  1  0
 17 19  1  0
 17 20  1  0
M  CHG  1   8   1
M  END
>  <PDB_ID>  (251) 
pdb2gak

>  <RESIDUE_NAME>  (251) 
LYS   MET

>  <FRAG_NAME>  (251) 
ETAM   MSM

>  <FRAG_ATOM_NUM>  (251) 
fragi: 11  fragj: 9

>  <atom.prop.CHAIN_ID>  (251) 
A A A A A A A A A A A Z Z Z Z Z Z Z Z Z

>  <atom.prop.IS_HEAVY_ATOM>  (251) 
1 0 0 0 1 0 0 1 0 0 0 1 0 0 0 1 1 0 0 0

>  <DIFUSE_FUNC_ATOM>  (251) 
n/a

>  <FINAL_SINGLE_POINT_ENERGY>  (251) 
0

>  <NONCOV_INTER_ENERGY_QM>  (251) 
0

>  <FF_Energy>  (251) 
4.39

>  <QM_Energy>  (251) 
-2.15

>  <source>  (251) 
ETAM_MSM

>  <Index>  (251) 
1364

$$$$
ETAM-pdb1fa2-A-LYS-297:MSM-pdb1fa2-A-MET-52
     RDKit          3D

 20 18  0  0  0  0  0  0  0  0999 V2000
    1.2632    0.8715    0.0000 C   0  0  0  0  0  0  0  0  0  0  0  0
    1.4346    1.1748    0.9334 H   0  0  0  0  0  0  0  0  0  0  0  0
    1.1009    1.6567   -0.5906 H   0  0  0  0  0  0  0  0  0  0  0  0
    2.1392    0.3329   -0.3614 H   0  0  0  0  0  0  0  0  0  0  0  0
    0.0000    0.0000    0.0000 C   0  0  0  0  0  0  0  0  0  0  0  0
    0.0118   -0.5841   -0.8162 H   0  0  0  0  0  0  0  0  0  0  0  0
    0.0111   -0.5841    0.8159 H   0  0  0  0  0  0  0  0  0  0  0  0
   -1.2632    0.8147    0.0000 N   0  0  0  0  0  4  0  0  0  0  0  0
   -1.7896    0.5959    0.8179 H   0  0  0  0  0  0  0  0  0  0  0  0
   -1.0248    1.7829   -0.0025 H   0  0  0  0  0  0  0  0  0  0  0  0
   -1.7925    0.5926   -0.8149 H   0  0  0  0  0  0  0  0  0  0  0  0
   -5.6879   -1.6854   -0.3960 C   0  0  0  0  0  0  0  0  0  0  0  0
   -6.0566   -1.2707    0.4676 H   0  0  0  0  0  0  0  0  0  0  0  0
   -5.3029   -2.5958   -0.1165 H   0  0  0  0  0  0  0  0  0  0  0  0
   -6.5163   -1.8521   -1.0845 H   0  0  0  0  0  0  0  0  0  0  0  0
   -4.3912   -0.6385   -1.0969 S   0  0  0  0  0  0  0  0  0  0  0  0
   -3.3033   -1.8874   -1.8084 C   0  0  0  0  0  0  0  0  0  0  0  0
   -3.5732   -2.7894   -1.4738 H   0  0  0  0  0  0  0  0  0  0  0  0
   -3.3788   -1.8626   -2.8042 H   0  0  0  0  0  0  0  0  0  0  0  0
   -2.3600   -1.6967   -1.5379 H   0  0  0  0  0  0  0  0  0  0  0  0
  1  5  1  0
  5  8  1  0
  1  2  1  0
  1  3  1  0
  1  4  1  0
  5  6  1  0
  5  7  1  0
  8  9  1  0
  8 10  1  0
  8 11  1  0
 12 16  1  0
 16 17  1  0
 12 13  1  0
 12 14  1  0
 12 15  1  0
 17 18  1  0
 17 19  1  0
 17 20  1  0
M  CHG  1   8   1
M  END
>  <PDB_ID>  (252) 
pdb1fa2

>  <RESIDUE_NAME>  (252) 
LYS   MET

>  <FRAG_NAME>  (252) 
ETAM   MSM

>  <FRAG_ATOM_NUM>  (252) 
fragi: 11  fragj: 9

>  <atom.prop.CHAIN_ID>  (252) 
A A A A A A A A A A A Z Z Z Z Z Z Z Z Z

>  <atom.prop.IS_HEAVY_ATOM>  (252) 
1 0 0 0 1 0 0 1 0 0 0 1 0 0 0 1 1 0 0 0

>  <DIFUSE_FUNC_ATOM>  (252) 
n/a

>  <FINAL_SINGLE_POINT_ENERGY>  (252) 
0

>  <NONCOV_INTER_ENERGY_QM>  (252) 
0

>  <FF_Energy>  (252) 
-4.18

>  <QM_Energy>  (252) 
-9.31

>  <source>  (252) 
ETAM_MSM

>  <Index>  (252) 
1366

$$$$
ETAM-pdb1f8r-C-LYS-326:MSM-pdb1f8r-C-MET-89
     RDKit          3D

 20 18  0  0  0  0  0  0  0  0999 V2000
    1.2597    0.8662    0.0000 C   0  0  0  0  0  0  0  0  0  0  0  0
    1.2705    1.4086    0.8279 H   0  0  0  0  0  0  0  0  0  0  0  0
    1.2470    1.4417   -0.8052 H   0  0  0  0  0  0  0  0  0  0  0  0
    2.1555    0.2457   -0.0250 H   0  0  0  0  0  0  0  0  0  0  0  0
    0.0000    0.0000    0.0000 C   0  0  0  0  0  0  0  0  0  0  0  0
    0.0144   -0.5898   -0.8161 H   0  0  0  0  0  0  0  0  0  0  0  0
    0.0137   -0.5906    0.8164 H   0  0  0  0  0  0  0  0  0  0  0  0
   -1.2597    0.8018   -0.0000 N   0  0  0  0  0  4  0  0  0  0  0  0
   -1.9715    0.2967   -0.4858 H   0  0  0  0  0  0  0  0  0  0  0  0
   -1.5467    0.9642    0.9428 H   0  0  0  0  0  0  0  0  0  0  0  0
   -1.0942    1.6746   -0.4572 H   0  0  0  0  0  0  0  0  0  0  0  0
   -4.6638    1.3612   -1.8584 C   0  0  0  0  0  0  0  0  0  0  0  0
   -4.8476    0.6901   -1.1084 H   0  0  0  0  0  0  0  0  0  0  0  0
   -5.5194    1.3953   -2.4184 H   0  0  0  0  0  0  0  0  0  0  0  0
   -4.5022    2.3427   -1.4126 H   0  0  0  0  0  0  0  0  0  0  0  0
   -3.2619    0.8260   -2.8648 S   0  0  0  0  0  0  0  0  0  0  0  0
   -3.7574   -0.8435   -3.2908 C   0  0  0  0  0  0  0  0  0  0  0  0
   -4.6141   -1.0676   -2.8242 H   0  0  0  0  0  0  0  0  0  0  0  0
   -3.8901   -0.9109   -4.2804 H   0  0  0  0  0  0  0  0  0  0  0  0
   -3.0459   -1.4869   -3.0069 H   0  0  0  0  0  0  0  0  0  0  0  0
  1  5  1  0
  5  8  1  0
  1  2  1  0
  1  3  1  0
  1  4  1  0
  5  6  1  0
  5  7  1  0
  8  9  1  0
  8 10  1  0
  8 11  1  0
 12 16  1  0
 16 17  1  0
 12 13  1  0
 12 14  1  0
 12 15  1  0
 17 18  1  0
 17 19  1  0
 17 20  1  0
M  CHG  1   8   1
M  END
>  <PDB_ID>  (253) 
pdb1f8r

>  <RESIDUE_NAME>  (253) 
LYS   MET

>  <FRAG_NAME>  (253) 
ETAM   MSM

>  <FRAG_ATOM_NUM>  (253) 
fragi: 11  fragj: 9

>  <atom.prop.CHAIN_ID>  (253) 
A A A A A A A A A A A Z Z Z Z Z Z Z Z Z

>  <atom.prop.IS_HEAVY_ATOM>  (253) 
1 0 0 0 1 0 0 1 0 0 0 1 0 0 0 1 1 0 0 0

>  <DIFUSE_FUNC_ATOM>  (253) 
n/a

>  <FINAL_SINGLE_POINT_ENERGY>  (253) 
0

>  <NONCOV_INTER_ENERGY_QM>  (253) 
0

>  <FF_Energy>  (253) 
-4.55

>  <QM_Energy>  (253) 
-12.82

>  <source>  (253) 
ETAM_MSM

>  <Index>  (253) 
1380

$$$$
ETAM-pdb1f8r-D-LYS-326:MSM-pdb1f8r-D-MET-89
     RDKit          3D

 20 18  0  0  0  0  0  0  0  0999 V2000
    1.2602    0.8712   -0.0000 C   0  0  0  0  0  0  0  0  0  0  0  0
    1.2150    1.4919    0.7684 H   0  0  0  0  0  0  0  0  0  0  0  0
    1.3037    1.3626   -0.8570 H   0  0  0  0  0  0  0  0  0  0  0  0
    2.1548    0.2564    0.0987 H   0  0  0  0  0  0  0  0  0  0  0  0
    0.0000    0.0000    0.0000 C   0  0  0  0  0  0  0  0  0  0  0  0
    0.0144   -0.5871   -0.8160 H   0  0  0  0  0  0  0  0  0  0  0  0
    0.0149   -0.5874    0.8163 H   0  0  0  0  0  0  0  0  0  0  0  0
   -1.2602    0.8057   -0.0000 N   0  0  0  0  0  4  0  0  0  0  0  0
   -2.0242    0.2193    0.2644 H   0  0  0  0  0  0  0  0  0  0  0  0
   -1.1696    1.5562    0.6523 H   0  0  0  0  0  0  0  0  0  0  0  0
   -1.4162    1.1711   -0.9155 H   0  0  0  0  0  0  0  0  0  0  0  0
   -4.5543    1.1049   -1.9847 C   0  0  0  0  0  0  0  0  0  0  0  0
   -4.6726    0.5367   -1.1435 H   0  0  0  0  0  0  0  0  0  0  0  0
   -5.4291    1.0201   -2.5076 H   0  0  0  0  0  0  0  0  0  0  0  0
   -4.4257    2.1455   -1.6869 H   0  0  0  0  0  0  0  0  0  0  0  0
   -3.1593    0.4896   -2.9755 S   0  0  0  0  0  0  0  0  0  0  0  0
   -3.6522   -1.2378   -3.2326 C   0  0  0  0  0  0  0  0  0  0  0  0
   -3.3508   -1.5295   -4.1378 H   0  0  0  0  0  0  0  0  0  0  0  0
   -3.2248   -1.8049   -2.5319 H   0  0  0  0  0  0  0  0  0  0  0  0
   -4.6447   -1.3044   -3.1664 H   0  0  0  0  0  0  0  0  0  0  0  0
  1  5  1  0
  5  8  1  0
  1  2  1  0
  1  3  1  0
  1  4  1  0
  5  6  1  0
  5  7  1  0
  8  9  1  0
  8 10  1  0
  8 11  1  0
 12 16  1  0
 16 17  1  0
 12 13  1  0
 12 14  1  0
 12 15  1  0
 17 18  1  0
 17 19  1  0
 17 20  1  0
M  CHG  1   8   1
M  END
>  <PDB_ID>  (254) 
pdb1f8r

>  <RESIDUE_NAME>  (254) 
LYS   MET

>  <FRAG_NAME>  (254) 
ETAM   MSM

>  <FRAG_ATOM_NUM>  (254) 
fragi: 11  fragj: 9

>  <atom.prop.CHAIN_ID>  (254) 
A A A A A A A A A A A Z Z Z Z Z Z Z Z Z

>  <atom.prop.IS_HEAVY_ATOM>  (254) 
1 0 0 0 1 0 0 1 0 0 0 1 0 0 0 1 1 0 0 0

>  <DIFUSE_FUNC_ATOM>  (254) 
n/a

>  <FINAL_SINGLE_POINT_ENERGY>  (254) 
0

>  <NONCOV_INTER_ENERGY_QM>  (254) 
0

>  <FF_Energy>  (254) 
-4.34

>  <QM_Energy>  (254) 
-12.27

>  <source>  (254) 
ETAM_MSM

>  <Index>  (254) 
1381

$$$$
ETAM-pdb1fh0-B-LYS-2203:MSM-pdb1fh0-B-MET-2123
     RDKit          3D

 20 18  0  0  0  0  0  0  0  0999 V2000
    1.2450    0.8740    0.0000 C   0  0  0  0  0  0  0  0  0  0  0  0
    2.0381    0.2958    0.1748 H   0  0  0  0  0  0  0  0  0  0  0  0
    1.1539    1.5558    0.7212 H   0  0  0  0  0  0  0  0  0  0  0  0
    1.3852    1.3846   -0.9527 H   0  0  0  0  0  0  0  0  0  0  0  0
    0.0000    0.0000    0.0000 C   0  0  0  0  0  0  0  0  0  0  0  0
    0.0098   -0.5811   -0.8158 H   0  0  0  0  0  0  0  0  0  0  0  0
    0.0098   -0.5808    0.8165 H   0  0  0  0  0  0  0  0  0  0  0  0
   -1.2450    0.8216   -0.0000 N   0  0  0  0  0  4  0  0  0  0  0  0
   -2.0380    0.2195   -0.0792 H   0  0  0  0  0  0  0  0  0  0  0  0
   -1.2992    1.3381    0.8532 H   0  0  0  0  0  0  0  0  0  0  0  0
   -1.2241    1.4526   -0.7743 H   0  0  0  0  0  0  0  0  0  0  0  0
   -2.4629   -3.4926    0.8979 C   0  0  0  0  0  0  0  0  0  0  0  0
   -3.0608   -4.2398    1.2677 H   0  0  0  0  0  0  0  0  0  0  0  0
   -1.7183   -3.3683    1.5931 H   0  0  0  0  0  0  0  0  0  0  0  0
   -2.0136   -3.8386   -0.0329 H   0  0  0  0  0  0  0  0  0  0  0  0
   -3.4061   -1.9637    0.6956 S   0  0  0  0  0  0  0  0  0  0  0  0
   -4.8509   -2.5691   -0.1717 C   0  0  0  0  0  0  0  0  0  0  0  0
   -5.6549   -2.4913    0.4200 H   0  0  0  0  0  0  0  0  0  0  0  0
   -4.9959   -2.0277   -1.0013 H   0  0  0  0  0  0  0  0  0  0  0  0
   -4.7152   -3.5290   -0.4225 H   0  0  0  0  0  0  0  0  0  0  0  0
  1  5  1  0
  5  8  1  0
  1  2  1  0
  1  3  1  0
  1  4  1  0
  5  6  1  0
  5  7  1  0
  8  9  1  0
  8 10  1  0
  8 11  1  0
 12 16  1  0
 16 17  1  0
 12 13  1  0
 12 14  1  0
 12 15  1  0
 17 18  1  0
 17 19  1  0
 17 20  1  0
M  CHG  1   8   1
M  END
>  <PDB_ID>  (255) 
pdb1fh0

>  <RESIDUE_NAME>  (255) 
LYS   MET

>  <FRAG_NAME>  (255) 
ETAM   MSM

>  <FRAG_ATOM_NUM>  (255) 
fragi: 11  fragj: 9

>  <atom.prop.CHAIN_ID>  (255) 
A A A A A A A A A A A Z Z Z Z Z Z Z Z Z

>  <atom.prop.IS_HEAVY_ATOM>  (255) 
1 0 0 0 1 0 0 1 0 0 0 1 0 0 0 1 1 0 0 0

>  <DIFUSE_FUNC_ATOM>  (255) 
n/a

>  <FINAL_SINGLE_POINT_ENERGY>  (255) 
0

>  <NONCOV_INTER_ENERGY_QM>  (255) 
0

>  <FF_Energy>  (255) 
-5.49

>  <QM_Energy>  (255) 
-14.38

>  <source>  (255) 
ETAM_MSM

>  <Index>  (255) 
1391

$$$$
ETAM-pdb2gcu-B-LYS-186:MSM-pdb2gcu-B-MET-208
     RDKit          3D

 20 18  0  0  0  0  0  0  0  0999 V2000
    1.2386    0.8858   -0.0000 C   0  0  0  0  0  0  0  0  0  0  0  0
    2.0413    0.3002    0.0451 H   0  0  0  0  0  0  0  0  0  0  0  0
    1.1977    1.4789    0.7976 H   0  0  0  0  0  0  0  0  0  0  0  0
    1.2853    1.4944   -0.9030 H   0  0  0  0  0  0  0  0  0  0  0  0
    0.0000    0.0000    0.0000 C   0  0  0  0  0  0  0  0  0  0  0  0
    0.0159   -0.5779   -0.8161 H   0  0  0  0  0  0  0  0  0  0  0  0
    0.0152   -0.5775    0.8162 H   0  0  0  0  0  0  0  0  0  0  0  0
   -1.2386    0.8192   -0.0000 N   0  0  0  0  0  4  0  0  0  0  0  0
   -1.4473    1.1076   -0.9348 H   0  0  0  0  0  0  0  0  0  0  0  0
   -1.9979    0.2759    0.3587 H   0  0  0  0  0  0  0  0  0  0  0  0
   -1.1046    1.6255    0.5756 H   0  0  0  0  0  0  0  0  0  0  0  0
   -3.2213    4.9862    0.4012 C   0  0  0  0  0  0  0  0  0  0  0  0
   -4.2495    5.1241    0.3284 H   0  0  0  0  0  0  0  0  0  0  0  0
   -2.8325    5.9125    0.1323 H   0  0  0  0  0  0  0  0  0  0  0  0
   -2.9634    4.7803    1.4401 H   0  0  0  0  0  0  0  0  0  0  0  0
   -2.6808    3.7333   -0.7298 S   0  0  0  0  0  0  0  0  0  0  0  0
   -3.9538    2.4829   -0.5313 C   0  0  0  0  0  0  0  0  0  0  0  0
   -4.8067    2.8073   -0.9419 H   0  0  0  0  0  0  0  0  0  0  0  0
   -3.6662    1.6386   -0.9840 H   0  0  0  0  0  0  0  0  0  0  0  0
   -4.0987    2.3056    0.4430 H   0  0  0  0  0  0  0  0  0  0  0  0
  1  5  1  0
  5  8  1  0
  1  2  1  0
  1  3  1  0
  1  4  1  0
  5  6  1  0
  5  7  1  0
  8  9  1  0
  8 10  1  0
  8 11  1  0
 12 16  1  0
 16 17  1  0
 12 13  1  0
 12 14  1  0
 12 15  1  0
 17 18  1  0
 17 19  1  0
 17 20  1  0
M  CHG  1   8   1
M  END
>  <PDB_ID>  (256) 
pdb2gcu

>  <RESIDUE_NAME>  (256) 
LYS   MET

>  <FRAG_NAME>  (256) 
ETAM   MSM

>  <FRAG_ATOM_NUM>  (256) 
fragi: 11  fragj: 9

>  <atom.prop.CHAIN_ID>  (256) 
A A A A A A A A A A A Z Z Z Z Z Z Z Z Z

>  <atom.prop.IS_HEAVY_ATOM>  (256) 
1 0 0 0 1 0 0 1 0 0 0 1 0 0 0 1 1 0 0 0

>  <DIFUSE_FUNC_ATOM>  (256) 
n/a

>  <FINAL_SINGLE_POINT_ENERGY>  (256) 
0

>  <NONCOV_INTER_ENERGY_QM>  (256) 
0

>  <FF_Energy>  (256) 
-3.11

>  <QM_Energy>  (256) 
-9.52

>  <source>  (256) 
ETAM_MSM

>  <Index>  (256) 
1393

$$$$
ETAM-pdb1fg4-B-LYS-133:MSM-pdb1fg4-B-MET-130
     RDKit          3D

 20 18  0  0  0  0  0  0  0  0999 V2000
    1.2440    0.8989   -0.0000 C   0  0  0  0  0  0  0  0  0  0  0  0
    1.2769    1.3868    0.8698 H   0  0  0  0  0  0  0  0  0  0  0  0
    1.1592    1.5502   -0.7509 H   0  0  0  0  0  0  0  0  0  0  0  0
    2.1696    0.3367   -0.1233 H   0  0  0  0  0  0  0  0  0  0  0  0
    0.0000    0.0000    0.0000 C   0  0  0  0  0  0  0  0  0  0  0  0
    0.0047   -0.5603   -0.8164 H   0  0  0  0  0  0  0  0  0  0  0  0
    0.0049   -0.5596    0.8161 H   0  0  0  0  0  0  0  0  0  0  0  0
   -1.2440    0.8595   -0.0000 N   0  0  0  0  0  4  0  0  0  0  0  0
   -1.1014    1.6278    0.6174 H   0  0  0  0  0  0  0  0  0  0  0  0
   -1.4063    1.1880   -0.9261 H   0  0  0  0  0  0  0  0  0  0  0  0
   -2.0136    0.3085    0.3086 H   0  0  0  0  0  0  0  0  0  0  0  0
   -0.3355    2.2058   -4.6921 C   0  0  0  0  0  0  0  0  0  0  0  0
   -0.2329    3.2418   -4.6828 H   0  0  0  0  0  0  0  0  0  0  0  0
   -1.2187    2.0574   -5.2222 H   0  0  0  0  0  0  0  0  0  0  0  0
    0.4881    1.7833   -5.2677 H   0  0  0  0  0  0  0  0  0  0  0  0
   -0.5236    1.5846   -2.9869 S   0  0  0  0  0  0  0  0  0  0  0  0
    0.0240   -0.1357   -3.2615 C   0  0  0  0  0  0  0  0  0  0  0  0
   -0.2149   -0.4010   -4.1906 H   0  0  0  0  0  0  0  0  0  0  0  0
    1.0098   -0.1804   -3.1323 H   0  0  0  0  0  0  0  0  0  0  0  0
   -0.4371   -0.7253   -2.6052 H   0  0  0  0  0  0  0  0  0  0  0  0
  1  5  1  0
  5  8  1  0
  1  2  1  0
  1  3  1  0
  1  4  1  0
  5  6  1  0
  5  7  1  0
  8  9  1  0
  8 10  1  0
  8 11  1  0
 12 16  1  0
 16 17  1  0
 12 13  1  0
 12 14  1  0
 12 15  1  0
 17 18  1  0
 17 19  1  0
 17 20  1  0
M  CHG  1   8   1
M  END
>  <PDB_ID>  (257) 
pdb1fg4

>  <RESIDUE_NAME>  (257) 
LYS   MET

>  <FRAG_NAME>  (257) 
ETAM   MSM

>  <FRAG_ATOM_NUM>  (257) 
fragi: 11  fragj: 9

>  <atom.prop.CHAIN_ID>  (257) 
A A A A A A A A A A A Z Z Z Z Z Z Z Z Z

>  <atom.prop.IS_HEAVY_ATOM>  (257) 
1 0 0 0 1 0 0 1 0 0 0 1 0 0 0 1 1 0 0 0

>  <DIFUSE_FUNC_ATOM>  (257) 
n/a

>  <FINAL_SINGLE_POINT_ENERGY>  (257) 
0

>  <NONCOV_INTER_ENERGY_QM>  (257) 
0

>  <FF_Energy>  (257) 
-0.22

>  <QM_Energy>  (257) 
-10.7

>  <source>  (257) 
ETAM_MSM

>  <Index>  (257) 
1394

$$$$
ETAM-pdb1fi8-B-LYS-64:MSM-pdb1fi8-B-MET-36
     RDKit          3D

 20 18  0  0  0  0  0  0  0  0999 V2000
    1.2191    0.8857    0.0000 C   0  0  0  0  0  0  0  0  0  0  0  0
    1.2157    1.4384    0.8318 H   0  0  0  0  0  0  0  0  0  0  0  0
    1.1835    1.4809   -0.8006 H   0  0  0  0  0  0  0  0  0  0  0  0
    2.1408    0.3048   -0.0327 H   0  0  0  0  0  0  0  0  0  0  0  0
    0.0000    0.0000    0.0000 C   0  0  0  0  0  0  0  0  0  0  0  0
    0.0074   -0.5701   -0.8162 H   0  0  0  0  0  0  0  0  0  0  0  0
    0.0067   -0.5703    0.8166 H   0  0  0  0  0  0  0  0  0  0  0  0
   -1.2191    0.8419    0.0000 N   0  0  0  0  0  4  0  0  0  0  0  0
   -1.3926    1.1806    0.9261 H   0  0  0  0  0  0  0  0  0  0  0  0
   -1.0898    1.6179   -0.6184 H   0  0  0  0  0  0  0  0  0  0  0  0
   -2.0013    0.2989   -0.3073 H   0  0  0  0  0  0  0  0  0  0  0  0
   -1.2202   -4.1436   -1.8418 C   0  0  0  0  0  0  0  0  0  0  0  0
   -1.7564   -4.9466   -2.1626 H   0  0  0  0  0  0  0  0  0  0  0  0
   -0.7717   -4.4198   -0.9714 H   0  0  0  0  0  0  0  0  0  0  0  0
   -0.4493   -3.9194   -2.5790 H   0  0  0  0  0  0  0  0  0  0  0  0
   -2.2842   -2.7221   -1.5906 S   0  0  0  0  0  0  0  0  0  0  0  0
   -2.1532   -2.4927    0.1479 C   0  0  0  0  0  0  0  0  0  0  0  0
   -3.0555   -2.2851    0.5448 H   0  0  0  0  0  0  0  0  0  0  0  0
   -1.7953   -3.3250    0.5874 H   0  0  0  0  0  0  0  0  0  0  0  0
   -1.5304   -1.7298    0.3571 H   0  0  0  0  0  0  0  0  0  0  0  0
  1  5  1  0
  5  8  1  0
  1  2  1  0
  1  3  1  0
  1  4  1  0
  5  6  1  0
  5  7  1  0
  8  9  1  0
  8 10  1  0
  8 11  1  0
 12 16  1  0
 16 17  1  0
 12 13  1  0
 12 14  1  0
 12 15  1  0
 17 18  1  0
 17 19  1  0
 17 20  1  0
M  CHG  1   8   1
M  END
>  <PDB_ID>  (258) 
pdb1fi8

>  <RESIDUE_NAME>  (258) 
LYS   MET

>  <FRAG_NAME>  (258) 
ETAM   MSM

>  <FRAG_ATOM_NUM>  (258) 
fragi: 11  fragj: 9

>  <atom.prop.CHAIN_ID>  (258) 
A A A A A A A A A A A Z Z Z Z Z Z Z Z Z

>  <atom.prop.IS_HEAVY_ATOM>  (258) 
1 0 0 0 1 0 0 1 0 0 0 1 0 0 0 1 1 0 0 0

>  <DIFUSE_FUNC_ATOM>  (258) 
n/a

>  <FINAL_SINGLE_POINT_ENERGY>  (258) 
0

>  <NONCOV_INTER_ENERGY_QM>  (258) 
0

>  <FF_Energy>  (258) 
1.58

>  <QM_Energy>  (258) 
-4.14

>  <source>  (258) 
ETAM_MSM

>  <Index>  (258) 
1401

$$$$
ETAM-pdb1fm6-U-LYS-440:MSM-pdb1fm6-U-MET-452
     RDKit          3D

 20 18  0  0  0  0  0  0  0  0999 V2000
    1.2604    0.8526    0.0000 C   0  0  0  0  0  0  0  0  0  0  0  0
    1.0961    1.6648   -0.5663 H   0  0  0  0  0  0  0  0  0  0  0  0
    2.0063    0.3175   -0.4050 H   0  0  0  0  0  0  0  0  0  0  0  0
    1.5692    1.1812    0.9923 H   0  0  0  0  0  0  0  0  0  0  0  0
    0.0000    0.0000    0.0000 C   0  0  0  0  0  0  0  0  0  0  0  0
    0.0134   -0.5987   -0.8167 H   0  0  0  0  0  0  0  0  0  0  0  0
    0.0129   -0.5986    0.8160 H   0  0  0  0  0  0  0  0  0  0  0  0
   -1.2604    0.7905   -0.0000 N   0  0  0  0  0  4  0  0  0  0  0  0
   -1.0404    1.7649   -0.0369 H   0  0  0  0  0  0  0  0  0  0  0  0
   -1.8090    0.5407   -0.7979 H   0  0  0  0  0  0  0  0  0  0  0  0
   -1.7747    0.5946    0.8346 H   0  0  0  0  0  0  0  0  0  0  0  0
   -2.1013    5.4143   -1.3561 C   0  0  0  0  0  0  0  0  0  0  0  0
   -2.9088    5.8582   -0.8839 H   0  0  0  0  0  0  0  0  0  0  0  0
   -2.5330    4.7412   -2.0133 H   0  0  0  0  0  0  0  0  0  0  0  0
   -1.5920    6.1790   -1.9426 H   0  0  0  0  0  0  0  0  0  0  0  0
   -1.0590    4.5479   -0.1523 S   0  0  0  0  0  0  0  0  0  0  0  0
    0.1981    3.8283   -1.1709 C   0  0  0  0  0  0  0  0  0  0  0  0
    0.5933    4.5255   -1.7772 H   0  0  0  0  0  0  0  0  0  0  0  0
    0.9296    3.4443   -0.5993 H   0  0  0  0  0  0  0  0  0  0  0  0
   -0.1914    3.0937   -1.7342 H   0  0  0  0  0  0  0  0  0  0  0  0
  1  5  1  0
  5  8  1  0
  1  2  1  0
  1  3  1  0
  1  4  1  0
  5  6  1  0
  5  7  1  0
  8  9  1  0
  8 10  1  0
  8 11  1  0
 12 16  1  0
 16 17  1  0
 12 13  1  0
 12 14  1  0
 12 15  1  0
 17 18  1  0
 17 19  1  0
 17 20  1  0
M  CHG  1   8   1
M  END
>  <PDB_ID>  (259) 
pdb1fm6

>  <RESIDUE_NAME>  (259) 
LYS   MET

>  <FRAG_NAME>  (259) 
ETAM   MSM

>  <FRAG_ATOM_NUM>  (259) 
fragi: 11  fragj: 9

>  <atom.prop.CHAIN_ID>  (259) 
A A A A A A A A A A A Z Z Z Z Z Z Z Z Z

>  <atom.prop.IS_HEAVY_ATOM>  (259) 
1 0 0 0 1 0 0 1 0 0 0 1 0 0 0 1 1 0 0 0

>  <DIFUSE_FUNC_ATOM>  (259) 
n/a

>  <FINAL_SINGLE_POINT_ENERGY>  (259) 
0

>  <NONCOV_INTER_ENERGY_QM>  (259) 
0

>  <FF_Energy>  (259) 
1.35

>  <QM_Energy>  (259) 
-6.66

>  <source>  (259) 
ETAM_MSM

>  <Index>  (259) 
1421

$$$$
ETAM-pdb1fph-H-LYS-109:MSM-pdb1fph-H-MET-84
     RDKit          3D

 20 18  0  0  0  0  0  0  0  0999 V2000
    1.2539    0.9111   -0.0000 C   0  0  0  0  0  0  0  0  0  0  0  0
    1.1077    1.6390    0.6695 H   0  0  0  0  0  0  0  0  0  0  0  0
    1.3472    1.3088   -0.9127 H   0  0  0  0  0  0  0  0  0  0  0  0
    2.1790    0.3915    0.2495 H   0  0  0  0  0  0  0  0  0  0  0  0
    0.0000    0.0000    0.0000 C   0  0  0  0  0  0  0  0  0  0  0  0
    0.0396   -0.5801   -0.8161 H   0  0  0  0  0  0  0  0  0  0  0  0
    0.0393   -0.5801    0.8160 H   0  0  0  0  0  0  0  0  0  0  0  0
   -1.2539    0.7843    0.0000 N   0  0  0  0  0  4  0  0  0  0  0  0
   -1.1686    1.5545    0.6338 H   0  0  0  0  0  0  0  0  0  0  0  0
   -1.4332    1.1318   -0.9215 H   0  0  0  0  0  0  0  0  0  0  0  0
   -2.0157    0.2011    0.2883 H   0  0  0  0  0  0  0  0  0  0  0  0
   -0.1885    4.8586    1.2484 C   0  0  0  0  0  0  0  0  0  0  0  0
   -0.8997    5.0948    1.9707 H   0  0  0  0  0  0  0  0  0  0  0  0
    0.3795    5.7281    1.1779 H   0  0  0  0  0  0  0  0  0  0  0  0
    0.4523    4.0797    1.6617 H   0  0  0  0  0  0  0  0  0  0  0  0
   -0.9772    4.4792   -0.3276 S   0  0  0  0  0  0  0  0  0  0  0  0
   -2.0559    5.9231   -0.4000 C   0  0  0  0  0  0  0  0  0  0  0  0
   -2.1393    6.3174    0.5138 H   0  0  0  0  0  0  0  0  0  0  0  0
   -1.6623    6.5968   -1.0235 H   0  0  0  0  0  0  0  0  0  0  0  0
   -2.9564    5.6453   -0.7302 H   0  0  0  0  0  0  0  0  0  0  0  0
  1  5  1  0
  5  8  1  0
  1  2  1  0
  1  3  1  0
  1  4  1  0
  5  6  1  0
  5  7  1  0
  8  9  1  0
  8 10  1  0
  8 11  1  0
 12 16  1  0
 16 17  1  0
 12 13  1  0
 12 14  1  0
 12 15  1  0
 17 18  1  0
 17 19  1  0
 17 20  1  0
M  CHG  1   8   1
M  END
>  <PDB_ID>  (260) 
pdb1fph

>  <RESIDUE_NAME>  (260) 
LYS   MET

>  <FRAG_NAME>  (260) 
ETAM   MSM

>  <FRAG_ATOM_NUM>  (260) 
fragi: 11  fragj: 9

>  <atom.prop.CHAIN_ID>  (260) 
A A A A A A A A A A A Z Z Z Z Z Z Z Z Z

>  <atom.prop.IS_HEAVY_ATOM>  (260) 
1 0 0 0 1 0 0 1 0 0 0 1 0 0 0 1 1 0 0 0

>  <DIFUSE_FUNC_ATOM>  (260) 
n/a

>  <FINAL_SINGLE_POINT_ENERGY>  (260) 
0

>  <NONCOV_INTER_ENERGY_QM>  (260) 
0

>  <FF_Energy>  (260) 
-5.17

>  <QM_Energy>  (260) 
-11.43

>  <source>  (260) 
ETAM_MSM

>  <Index>  (260) 
1440

$$$$
ETAM-pdb1fmt-B-LYS-153:MSM-pdb1fmt-B-MET-150
     RDKit          3D

 20 18  0  0  0  0  0  0  0  0999 V2000
    1.2197    0.8589    0.0000 C   0  0  0  0  0  0  0  0  0  0  0  0
    1.2790    1.3436    0.8698 H   0  0  0  0  0  0  0  0  0  0  0  0
    1.1589    1.5137   -0.7499 H   0  0  0  0  0  0  0  0  0  0  0  0
    2.1198    0.2579   -0.1291 H   0  0  0  0  0  0  0  0  0  0  0  0
    0.0000    0.0000    0.0000 C   0  0  0  0  0  0  0  0  0  0  0  0
   -0.0105   -0.5729   -0.8160 H   0  0  0  0  0  0  0  0  0  0  0  0
   -0.0106   -0.5737    0.8162 H   0  0  0  0  0  0  0  0  0  0  0  0
   -1.2197    0.8589    0.0000 N   0  0  0  0  0  4  0  0  0  0  0  0
   -1.9693    0.3675   -0.4417 H   0  0  0  0  0  0  0  0  0  0  0  0
   -1.4698    1.0770    0.9428 H   0  0  0  0  0  0  0  0  0  0  0  0
   -1.0296    1.7020   -0.5008 H   0  0  0  0  0  0  0  0  0  0  0  0
   -0.4268   -0.9857   -4.7739 C   0  0  0  0  0  0  0  0  0  0  0  0
    0.2808   -0.4087   -5.2442 H   0  0  0  0  0  0  0  0  0  0  0  0
   -1.0206   -1.3545   -5.5269 H   0  0  0  0  0  0  0  0  0  0  0  0
    0.0775   -1.8225   -4.2905 H   0  0  0  0  0  0  0  0  0  0  0  0
   -1.3589   -0.0493   -3.6178 S   0  0  0  0  0  0  0  0  0  0  0  0
   -2.7188   -1.1445   -3.3587 C   0  0  0  0  0  0  0  0  0  0  0  0
   -2.8839   -1.6963   -4.1831 H   0  0  0  0  0  0  0  0  0  0  0  0
   -2.5256   -1.7644   -2.5903 H   0  0  0  0  0  0  0  0  0  0  0  0
   -3.5527   -0.6223   -3.1488 H   0  0  0  0  0  0  0  0  0  0  0  0
  1  5  1  0
  5  8  1  0
  1  2  1  0
  1  3  1  0
  1  4  1  0
  5  6  1  0
  5  7  1  0
  8  9  1  0
  8 10  1  0
  8 11  1  0
 12 16  1  0
 16 17  1  0
 12 13  1  0
 12 14  1  0
 12 15  1  0
 17 18  1  0
 17 19  1  0
 17 20  1  0
M  CHG  1   8   1
M  END
>  <PDB_ID>  (261) 
pdb1fmt

>  <RESIDUE_NAME>  (261) 
LYS   MET

>  <FRAG_NAME>  (261) 
ETAM   MSM

>  <FRAG_ATOM_NUM>  (261) 
fragi: 11  fragj: 9

>  <atom.prop.CHAIN_ID>  (261) 
A A A A A A A A A A A Z Z Z Z Z Z Z Z Z

>  <atom.prop.IS_HEAVY_ATOM>  (261) 
1 0 0 0 1 0 0 1 0 0 0 1 0 0 0 1 1 0 0 0

>  <DIFUSE_FUNC_ATOM>  (261) 
n/a

>  <FINAL_SINGLE_POINT_ENERGY>  (261) 
0

>  <NONCOV_INTER_ENERGY_QM>  (261) 
0

>  <FF_Energy>  (261) 
-4.83

>  <QM_Energy>  (261) 
-10.23

>  <source>  (261) 
ETAM_MSM

>  <Index>  (261) 
1441

$$$$
ETAM-pdb1fsx-D-LYS-732:MSM-pdb1fsx-D-MET-602
     RDKit          3D

 20 18  0  0  0  0  0  0  0  0999 V2000
    1.2811    0.8248    0.0000 C   0  0  0  0  0  0  0  0  0  0  0  0
    2.0457    0.2191    0.1896 H   0  0  0  0  0  0  0  0  0  0  0  0
    1.2058    1.5227    0.7028 H   0  0  0  0  0  0  0  0  0  0  0  0
    1.4379    1.3049   -0.9659 H   0  0  0  0  0  0  0  0  0  0  0  0
    0.0000    0.0000    0.0000 C   0  0  0  0  0  0  0  0  0  0  0  0
   -0.0130   -0.5943   -0.8164 H   0  0  0  0  0  0  0  0  0  0  0  0
   -0.0135   -0.5946    0.8164 H   0  0  0  0  0  0  0  0  0  0  0  0
   -1.2811    0.8308    0.0000 N   0  0  0  0  0  4  0  0  0  0  0  0
   -1.7475    0.6850   -0.8647 H   0  0  0  0  0  0  0  0  0  0  0  0
   -1.8480    0.5296    0.7583 H   0  0  0  0  0  0  0  0  0  0  0  0
   -1.0329    1.7868    0.1067 H   0  0  0  0  0  0  0  0  0  0  0  0
   -3.7024    4.4703   -2.2469 C   0  0  0  0  0  0  0  0  0  0  0  0
   -4.4572    4.6173   -2.9337 H   0  0  0  0  0  0  0  0  0  0  0  0
   -2.8726    4.2426   -2.8145 H   0  0  0  0  0  0  0  0  0  0  0  0
   -3.5186    5.4138   -1.7329 H   0  0  0  0  0  0  0  0  0  0  0  0
   -4.1076    3.1064   -1.1385 S   0  0  0  0  0  0  0  0  0  0  0  0
   -5.7982    2.7303   -1.7084 C   0  0  0  0  0  0  0  0  0  0  0  0
   -5.9339    1.7443   -1.6772 H   0  0  0  0  0  0  0  0  0  0  0  0
   -6.4470    3.1863   -1.1059 H   0  0  0  0  0  0  0  0  0  0  0  0
   -5.9023    3.0627   -2.6418 H   0  0  0  0  0  0  0  0  0  0  0  0
  1  5  1  0
  5  8  1  0
  1  2  1  0
  1  3  1  0
  1  4  1  0
  5  6  1  0
  5  7  1  0
  8  9  1  0
  8 10  1  0
  8 11  1  0
 12 16  1  0
 16 17  1  0
 12 13  1  0
 12 14  1  0
 12 15  1  0
 17 18  1  0
 17 19  1  0
 17 20  1  0
M  CHG  1   8   1
M  END
>  <PDB_ID>  (262) 
pdb1fsx

>  <RESIDUE_NAME>  (262) 
LYS   MET

>  <FRAG_NAME>  (262) 
ETAM   MSM

>  <FRAG_ATOM_NUM>  (262) 
fragi: 11  fragj: 9

>  <atom.prop.CHAIN_ID>  (262) 
A A A A A A A A A A A Z Z Z Z Z Z Z Z Z

>  <atom.prop.IS_HEAVY_ATOM>  (262) 
1 0 0 0 1 0 0 1 0 0 0 1 0 0 0 1 1 0 0 0

>  <DIFUSE_FUNC_ATOM>  (262) 
n/a

>  <FINAL_SINGLE_POINT_ENERGY>  (262) 
0

>  <NONCOV_INTER_ENERGY_QM>  (262) 
0

>  <FF_Energy>  (262) 
-4.42

>  <QM_Energy>  (262) 
-10.27

>  <source>  (262) 
ETAM_MSM

>  <Index>  (262) 
1457

$$$$
ETAM-pdb1fwk-A-LYS-79:MSM-pdb1fwk-A-MET-5
     RDKit          3D

 20 18  0  0  0  0  0  0  0  0999 V2000
    1.2428    0.8981    0.0000 C   0  0  0  0  0  0  0  0  0  0  0  0
    1.1667    1.5345    0.7729 H   0  0  0  0  0  0  0  0  0  0  0  0
    1.2450    1.4266   -0.8543 H   0  0  0  0  0  0  0  0  0  0  0  0
    2.1845    0.3553    0.0822 H   0  0  0  0  0  0  0  0  0  0  0  0
    0.0000    0.0000    0.0000 C   0  0  0  0  0  0  0  0  0  0  0  0
    0.0092   -0.5637   -0.8164 H   0  0  0  0  0  0  0  0  0  0  0  0
    0.0092   -0.5642    0.8159 H   0  0  0  0  0  0  0  0  0  0  0  0
   -1.2428    0.8478   -0.0000 N   0  0  0  0  0  4  0  0  0  0  0  0
   -1.7921    0.6159   -0.7986 H   0  0  0  0  0  0  0  0  0  0  0  0
   -1.7591    0.6647    0.8332 H   0  0  0  0  0  0  0  0  0  0  0  0
   -0.9789    1.8086   -0.0347 H   0  0  0  0  0  0  0  0  0  0  0  0
   -2.8030    3.6445   -1.8438 C   0  0  0  0  0  0  0  0  0  0  0  0
   -1.9399    3.1306   -1.6341 H   0  0  0  0  0  0  0  0  0  0  0  0
   -2.8680    4.3726   -1.1241 H   0  0  0  0  0  0  0  0  0  0  0  0
   -2.6977    4.1228   -2.8177 H   0  0  0  0  0  0  0  0  0  0  0  0
   -4.2430    2.5266   -1.7412 S   0  0  0  0  0  0  0  0  0  0  0  0
   -3.4314    0.9323   -2.0973 C   0  0  0  0  0  0  0  0  0  0  0  0
   -3.0056    0.9841   -2.9949 H   0  0  0  0  0  0  0  0  0  0  0  0
   -2.7435    0.7613   -1.3983 H   0  0  0  0  0  0  0  0  0  0  0  0
   -4.1208    0.2135   -2.0850 H   0  0  0  0  0  0  0  0  0  0  0  0
  1  5  1  0
  5  8  1  0
  1  2  1  0
  1  3  1  0
  1  4  1  0
  5  6  1  0
  5  7  1  0
  8  9  1  0
  8 10  1  0
  8 11  1  0
 12 16  1  0
 16 17  1  0
 12 13  1  0
 12 14  1  0
 12 15  1  0
 17 18  1  0
 17 19  1  0
 17 20  1  0
M  CHG  1   8   1
M  END
>  <PDB_ID>  (263) 
pdb1fwk

>  <RESIDUE_NAME>  (263) 
LYS   MET

>  <FRAG_NAME>  (263) 
ETAM   MSM

>  <FRAG_ATOM_NUM>  (263) 
fragi: 11  fragj: 9

>  <atom.prop.CHAIN_ID>  (263) 
A A A A A A A A A A A Z Z Z Z Z Z Z Z Z

>  <atom.prop.IS_HEAVY_ATOM>  (263) 
1 0 0 0 1 0 0 1 0 0 0 1 0 0 0 1 1 0 0 0

>  <DIFUSE_FUNC_ATOM>  (263) 
n/a

>  <FINAL_SINGLE_POINT_ENERGY>  (263) 
0

>  <NONCOV_INTER_ENERGY_QM>  (263) 
0

>  <FF_Energy>  (263) 
16.79

>  <QM_Energy>  (263) 
11.55

>  <source>  (263) 
ETAM_MSM

>  <Index>  (263) 
1483

$$$$
ETAM-pdb2gq0-A-LYS-478:MSM-pdb2gq0-A-MET-423
     RDKit          3D

 20 18  0  0  0  0  0  0  0  0999 V2000
    1.2242    0.9288    0.0000 C   0  0  0  0  0  0  0  0  0  0  0  0
    1.0102    1.6972   -0.5887 H   0  0  0  0  0  0  0  0  0  0  0  0
    1.9878    0.4082   -0.3601 H   0  0  0  0  0  0  0  0  0  0  0  0
    1.4223    1.2610    1.0190 H   0  0  0  0  0  0  0  0  0  0  0  0
    0.0000    0.0000    0.0000 C   0  0  0  0  0  0  0  0  0  0  0  0
    0.0407   -0.5688   -0.8165 H   0  0  0  0  0  0  0  0  0  0  0  0
    0.0410   -0.5690    0.8162 H   0  0  0  0  0  0  0  0  0  0  0  0
   -1.2242    0.8004    0.0000 N   0  0  0  0  0  4  0  0  0  0  0  0
   -2.0205    0.2122   -0.1672 H   0  0  0  0  0  0  0  0  0  0  0  0
   -1.3381    1.2554    0.8877 H   0  0  0  0  0  0  0  0  0  0  0  0
   -1.1792    1.4987   -0.7203 H   0  0  0  0  0  0  0  0  0  0  0  0
    3.5601   -2.8298   -2.4826 C   0  0  0  0  0  0  0  0  0  0  0  0
    4.5478   -3.1081   -2.2723 H   0  0  0  0  0  0  0  0  0  0  0  0
    3.6088   -2.5751   -3.4977 H   0  0  0  0  0  0  0  0  0  0  0  0
    2.9349   -3.7178   -2.3886 H   0  0  0  0  0  0  0  0  0  0  0  0
    3.0858   -1.4049   -1.5002 S   0  0  0  0  0  0  0  0  0  0  0  0
    3.6356   -1.8357    0.1536 C   0  0  0  0  0  0  0  0  0  0  0  0
    2.9994   -2.4941    0.5560 H   0  0  0  0  0  0  0  0  0  0  0  0
    4.5490   -2.2416    0.1065 H   0  0  0  0  0  0  0  0  0  0  0  0
    3.6658   -1.0124    0.7207 H   0  0  0  0  0  0  0  0  0  0  0  0
  1  5  1  0
  5  8  1  0
  1  2  1  0
  1  3  1  0
  1  4  1  0
  5  6  1  0
  5  7  1  0
  8  9  1  0
  8 10  1  0
  8 11  1  0
 12 16  1  0
 16 17  1  0
 12 13  1  0
 12 14  1  0
 12 15  1  0
 17 18  1  0
 17 19  1  0
 17 20  1  0
M  CHG  1   8   1
M  END
>  <PDB_ID>  (264) 
pdb2gq0

>  <RESIDUE_NAME>  (264) 
LYS   MET

>  <FRAG_NAME>  (264) 
ETAM   MSM

>  <FRAG_ATOM_NUM>  (264) 
fragi: 11  fragj: 9

>  <atom.prop.CHAIN_ID>  (264) 
A A A A A A A A A A A Z Z Z Z Z Z Z Z Z

>  <atom.prop.IS_HEAVY_ATOM>  (264) 
1 0 0 0 1 0 0 1 0 0 0 1 0 0 0 1 1 0 0 0

>  <DIFUSE_FUNC_ATOM>  (264) 
n/a

>  <FINAL_SINGLE_POINT_ENERGY>  (264) 
0

>  <NONCOV_INTER_ENERGY_QM>  (264) 
0

>  <FF_Energy>  (264) 
1.01

>  <QM_Energy>  (264) 
-6.08

>  <source>  (264) 
ETAM_MSM

>  <Index>  (264) 
1487

$$$$
ETAM-pdb2gtr-A-LYS-155:MSM-pdb2gtr-A-MET-222
     RDKit          3D

 20 18  0  0  0  0  0  0  0  0999 V2000
    1.2626    0.8760   -0.0000 C   0  0  0  0  0  0  0  0  0  0  0  0
    2.0352    0.2986    0.1671 H   0  0  0  0  0  0  0  0  0  0  0  0
    1.1507    1.5730    0.6783 H   0  0  0  0  0  0  0  0  0  0  0  0
    1.3498    1.3312   -0.9865 H   0  0  0  0  0  0  0  0  0  0  0  0
    0.0000    0.0000    0.0000 C   0  0  0  0  0  0  0  0  0  0  0  0
    0.0042   -0.5745   -0.8157 H   0  0  0  0  0  0  0  0  0  0  0  0
    0.0034   -0.5743    0.8165 H   0  0  0  0  0  0  0  0  0  0  0  0
   -1.2626    0.8382   -0.0000 N   0  0  0  0  0  4  0  0  0  0  0  0
   -1.8769    0.4878   -0.7001 H   0  0  0  0  0  0  0  0  0  0  0  0
   -1.6878    0.7724    0.8980 H   0  0  0  0  0  0  0  0  0  0  0  0
   -1.0176    1.7825   -0.1970 H   0  0  0  0  0  0  0  0  0  0  0  0
    1.1064    0.7425    4.8309 C   0  0  0  0  0  0  0  0  0  0  0  0
    0.5455    1.5940    5.0602 H   0  0  0  0  0  0  0  0  0  0  0  0
    1.9722    1.1452    4.4068 H   0  0  0  0  0  0  0  0  0  0  0  0
    1.4018    0.2985    5.7816 H   0  0  0  0  0  0  0  0  0  0  0  0
    0.2270   -0.3089    3.6308 S   0  0  0  0  0  0  0  0  0  0  0  0
    1.5500   -1.3409    2.9571 C   0  0  0  0  0  0  0  0  0  0  0  0
    2.4208   -0.8634    3.0568 H   0  0  0  0  0  0  0  0  0  0  0  0
    1.5791   -2.2043    3.4578 H   0  0  0  0  0  0  0  0  0  0  0  0
    1.3691   -1.5161    1.9906 H   0  0  0  0  0  0  0  0  0  0  0  0
  1  5  1  0
  5  8  1  0
  1  2  1  0
  1  3  1  0
  1  4  1  0
  5  6  1  0
  5  7  1  0
  8  9  1  0
  8 10  1  0
  8 11  1  0
 12 16  1  0
 16 17  1  0
 12 13  1  0
 12 14  1  0
 12 15  1  0
 17 18  1  0
 17 19  1  0
 17 20  1  0
M  CHG  1   8   1
M  END
>  <PDB_ID>  (265) 
pdb2gtr

>  <RESIDUE_NAME>  (265) 
LYS   MET

>  <FRAG_NAME>  (265) 
ETAM   MSM

>  <FRAG_ATOM_NUM>  (265) 
fragi: 11  fragj: 9

>  <atom.prop.CHAIN_ID>  (265) 
A A A A A A A A A A A Z Z Z Z Z Z Z Z Z

>  <atom.prop.IS_HEAVY_ATOM>  (265) 
1 0 0 0 1 0 0 1 0 0 0 1 0 0 0 1 1 0 0 0

>  <DIFUSE_FUNC_ATOM>  (265) 
n/a

>  <FINAL_SINGLE_POINT_ENERGY>  (265) 
0

>  <NONCOV_INTER_ENERGY_QM>  (265) 
0

>  <FF_Energy>  (265) 
-3.12

>  <QM_Energy>  (265) 
-8.91

>  <source>  (265) 
ETAM_MSM

>  <Index>  (265) 
1513

$$$$
ETAM-pdb1g1s-A-LYS-129:MSM-pdb1g1s-A-MET-125
     RDKit          3D

 20 18  0  0  0  0  0  0  0  0999 V2000
    1.2428    0.8962   -0.0000 C   0  0  0  0  0  0  0  0  0  0  0  0
    1.1975    1.5028   -0.7933 H   0  0  0  0  0  0  0  0  0  0  0  0
    2.0530    0.3148   -0.0690 H   0  0  0  0  0  0  0  0  0  0  0  0
    1.3363    1.5105    0.8956 H   0  0  0  0  0  0  0  0  0  0  0  0
    0.0000    0.0000    0.0000 C   0  0  0  0  0  0  0  0  0  0  0  0
    0.0194   -0.5730   -0.8162 H   0  0  0  0  0  0  0  0  0  0  0  0
    0.0184   -0.5735    0.8167 H   0  0  0  0  0  0  0  0  0  0  0  0
   -1.2428    0.8212   -0.0000 N   0  0  0  0  0  4  0  0  0  0  0  0
   -1.2934    1.3455   -0.8490 H   0  0  0  0  0  0  0  0  0  0  0  0
   -2.0370    0.2188    0.0699 H   0  0  0  0  0  0  0  0  0  0  0  0
   -1.2256    1.4469    0.7791 H   0  0  0  0  0  0  0  0  0  0  0  0
   -3.2468    1.9438    3.9740 C   0  0  0  0  0  0  0  0  0  0  0  0
   -3.5795    1.0375    3.6548 H   0  0  0  0  0  0  0  0  0  0  0  0
   -4.0569    2.4477    4.3262 H   0  0  0  0  0  0  0  0  0  0  0  0
   -2.5438    1.7910    4.7930 H   0  0  0  0  0  0  0  0  0  0  0  0
   -2.4647    2.8480    2.6328 S   0  0  0  0  0  0  0  0  0  0  0  0
   -3.5788    4.2813    2.5298 C   0  0  0  0  0  0  0  0  0  0  0  0
   -3.0814    5.0976    2.8114 H   0  0  0  0  0  0  0  0  0  0  0  0
   -3.8918    4.3795    1.5891 H   0  0  0  0  0  0  0  0  0  0  0  0
   -4.3558    4.1292    3.1348 H   0  0  0  0  0  0  0  0  0  0  0  0
  1  5  1  0
  5  8  1  0
  1  2  1  0
  1  3  1  0
  1  4  1  0
  5  6  1  0
  5  7  1  0
  8  9  1  0
  8 10  1  0
  8 11  1  0
 12 16  1  0
 16 17  1  0
 12 13  1  0
 12 14  1  0
 12 15  1  0
 17 18  1  0
 17 19  1  0
 17 20  1  0
M  CHG  1   8   1
M  END
>  <PDB_ID>  (266) 
pdb1g1s

>  <RESIDUE_NAME>  (266) 
LYS   MET

>  <FRAG_NAME>  (266) 
ETAM   MSM

>  <FRAG_ATOM_NUM>  (266) 
fragi: 11  fragj: 9

>  <atom.prop.CHAIN_ID>  (266) 
A A A A A A A A A A A Z Z Z Z Z Z Z Z Z

>  <atom.prop.IS_HEAVY_ATOM>  (266) 
1 0 0 0 1 0 0 1 0 0 0 1 0 0 0 1 1 0 0 0

>  <DIFUSE_FUNC_ATOM>  (266) 
n/a

>  <FINAL_SINGLE_POINT_ENERGY>  (266) 
0

>  <NONCOV_INTER_ENERGY_QM>  (266) 
0

>  <FF_Energy>  (266) 
-5.3

>  <QM_Energy>  (266) 
-13.59

>  <source>  (266) 
ETAM_MSM

>  <Index>  (266) 
1528

$$$$
ETAM-pdb2gtr-B-LYS-155:MSM-pdb2gtr-B-MET-222
     RDKit          3D

 20 18  0  0  0  0  0  0  0  0999 V2000
    1.2616    0.9076   -0.0000 C   0  0  0  0  0  0  0  0  0  0  0  0
    2.0502    0.3292    0.1148 H   0  0  0  0  0  0  0  0  0  0  0  0
    1.1680    1.5548    0.7362 H   0  0  0  0  0  0  0  0  0  0  0  0
    1.3360    1.4407   -0.9478 H   0  0  0  0  0  0  0  0  0  0  0  0
    0.0000    0.0000    0.0000 C   0  0  0  0  0  0  0  0  0  0  0  0
    0.0362   -0.5803   -0.8165 H   0  0  0  0  0  0  0  0  0  0  0  0
    0.0358   -0.5800    0.8169 H   0  0  0  0  0  0  0  0  0  0  0  0
   -1.2616    0.7886    0.0000 N   0  0  0  0  0  4  0  0  0  0  0  0
   -2.0267    0.1901   -0.2336 H   0  0  0  0  0  0  0  0  0  0  0  0
   -1.4081    1.1801    0.9084 H   0  0  0  0  0  0  0  0  0  0  0  0
   -1.1940    1.5237   -0.6737 H   0  0  0  0  0  0  0  0  0  0  0  0
    1.1620    0.1906    4.8805 C   0  0  0  0  0  0  0  0  0  0  0  0
    0.4435    0.8477    5.2303 H   0  0  0  0  0  0  0  0  0  0  0  0
    1.9226    0.8053    4.5412 H   0  0  0  0  0  0  0  0  0  0  0  0
    1.5462   -0.3585    5.7401 H   0  0  0  0  0  0  0  0  0  0  0  0
    0.4934   -0.8245    3.5094 S   0  0  0  0  0  0  0  0  0  0  0  0
    2.0145   -1.4189    2.6971 C   0  0  0  0  0  0  0  0  0  0  0  0
    1.7755   -2.1567    2.0734 H   0  0  0  0  0  0  0  0  0  0  0  0
    2.4251   -0.6633    2.1950 H   0  0  0  0  0  0  0  0  0  0  0  0
    2.6417   -1.7486    3.3964 H   0  0  0  0  0  0  0  0  0  0  0  0
  1  5  1  0
  5  8  1  0
  1  2  1  0
  1  3  1  0
  1  4  1  0
  5  6  1  0
  5  7  1  0
  8  9  1  0
  8 10  1  0
  8 11  1  0
 12 16  1  0
 16 17  1  0
 12 13  1  0
 12 14  1  0
 12 15  1  0
 17 18  1  0
 17 19  1  0
 17 20  1  0
M  CHG  1   8   1
M  END
>  <PDB_ID>  (267) 
pdb2gtr

>  <RESIDUE_NAME>  (267) 
LYS   MET

>  <FRAG_NAME>  (267) 
ETAM   MSM

>  <FRAG_ATOM_NUM>  (267) 
fragi: 11  fragj: 9

>  <atom.prop.CHAIN_ID>  (267) 
A A A A A A A A A A A Z Z Z Z Z Z Z Z Z

>  <atom.prop.IS_HEAVY_ATOM>  (267) 
1 0 0 0 1 0 0 1 0 0 0 1 0 0 0 1 1 0 0 0

>  <DIFUSE_FUNC_ATOM>  (267) 
n/a

>  <FINAL_SINGLE_POINT_ENERGY>  (267) 
0

>  <NONCOV_INTER_ENERGY_QM>  (267) 
0

>  <FF_Energy>  (267) 
-3.35

>  <QM_Energy>  (267) 
-8.48

>  <source>  (267) 
ETAM_MSM

>  <Index>  (267) 
1530

$$$$
ETAM-pdb2gzv-A-LYS-103:MSM-pdb2gzv-A-MET-18
     RDKit          3D

 20 18  0  0  0  0  0  0  0  0999 V2000
    1.2544    0.9036    0.0000 C   0  0  0  0  0  0  0  0  0  0  0  0
    1.1928    1.5048    0.7993 H   0  0  0  0  0  0  0  0  0  0  0  0
    1.2252    1.4598   -0.8333 H   0  0  0  0  0  0  0  0  0  0  0  0
    2.1905    0.3462    0.0343 H   0  0  0  0  0  0  0  0  0  0  0  0
    0.0000    0.0000    0.0000 C   0  0  0  0  0  0  0  0  0  0  0  0
    0.0258   -0.5742   -0.8158 H   0  0  0  0  0  0  0  0  0  0  0  0
    0.0252   -0.5743    0.8169 H   0  0  0  0  0  0  0  0  0  0  0  0
   -1.2544    0.8110    0.0000 N   0  0  0  0  0  4  0  0  0  0  0  0
   -1.0939    1.6646   -0.4926 H   0  0  0  0  0  0  0  0  0  0  0  0
   -1.9800    0.2942   -0.4504 H   0  0  0  0  0  0  0  0  0  0  0  0
   -1.5175    1.0100    0.9424 H   0  0  0  0  0  0  0  0  0  0  0  0
   -0.3037   -0.3664    4.4340 C   0  0  0  0  0  0  0  0  0  0  0  0
   -0.4327   -0.9667    5.2507 H   0  0  0  0  0  0  0  0  0  0  0  0
   -0.1443    0.5749    4.7981 H   0  0  0  0  0  0  0  0  0  0  0  0
    0.5958   -0.6893    3.9097 H   0  0  0  0  0  0  0  0  0  0  0  0
   -1.7582   -0.4069    3.3699 S   0  0  0  0  0  0  0  0  0  0  0  0
   -1.8290   -2.1590    3.0308 C   0  0  0  0  0  0  0  0  0  0  0  0
   -1.0113   -2.4388    2.5245 H   0  0  0  0  0  0  0  0  0  0  0  0
   -1.8736   -2.6694    3.8915 H   0  0  0  0  0  0  0  0  0  0  0  0
   -2.6422   -2.3650    2.4834 H   0  0  0  0  0  0  0  0  0  0  0  0
  1  5  1  0
  5  8  1  0
  1  2  1  0
  1  3  1  0
  1  4  1  0
  5  6  1  0
  5  7  1  0
  8  9  1  0
  8 10  1  0
  8 11  1  0
 12 16  1  0
 16 17  1  0
 12 13  1  0
 12 14  1  0
 12 15  1  0
 17 18  1  0
 17 19  1  0
 17 20  1  0
M  CHG  1   8   1
M  END
>  <PDB_ID>  (268) 
pdb2gzv

>  <RESIDUE_NAME>  (268) 
LYS   MET

>  <FRAG_NAME>  (268) 
ETAM   MSM

>  <FRAG_ATOM_NUM>  (268) 
fragi: 11  fragj: 9

>  <atom.prop.CHAIN_ID>  (268) 
A A A A A A A A A A A Z Z Z Z Z Z Z Z Z

>  <atom.prop.IS_HEAVY_ATOM>  (268) 
1 0 0 0 1 0 0 1 0 0 0 1 0 0 0 1 1 0 0 0

>  <DIFUSE_FUNC_ATOM>  (268) 
n/a

>  <FINAL_SINGLE_POINT_ENERGY>  (268) 
0

>  <NONCOV_INTER_ENERGY_QM>  (268) 
0

>  <FF_Energy>  (268) 
-5.18

>  <QM_Energy>  (268) 
-13.47

>  <source>  (268) 
ETAM_MSM

>  <Index>  (268) 
1536

$$$$
ETAM-pdb2gtr-C-LYS-155:MSM-pdb2gtr-C-MET-222
     RDKit          3D

 20 18  0  0  0  0  0  0  0  0999 V2000
    1.2616    0.8860    0.0000 C   0  0  0  0  0  0  0  0  0  0  0  0
    2.0441    0.3190    0.1722 H   0  0  0  0  0  0  0  0  0  0  0  0
    1.1504    1.5910    0.6734 H   0  0  0  0  0  0  0  0  0  0  0  0
    1.3782    1.3528   -0.9780 H   0  0  0  0  0  0  0  0  0  0  0  0
    0.0000    0.0000    0.0000 C   0  0  0  0  0  0  0  0  0  0  0  0
    0.0147   -0.5773   -0.8158 H   0  0  0  0  0  0  0  0  0  0  0  0
    0.0148   -0.5773    0.8162 H   0  0  0  0  0  0  0  0  0  0  0  0
   -1.2616    0.8203   -0.0000 N   0  0  0  0  0  4  0  0  0  0  0  0
   -1.1984    1.5095   -0.7170 H   0  0  0  0  0  0  0  0  0  0  0  0
   -2.0382    0.2195   -0.1720 H   0  0  0  0  0  0  0  0  0  0  0  0
   -1.3610    1.2604    0.8888 H   0  0  0  0  0  0  0  0  0  0  0  0
    1.2800    0.4715    4.8430 C   0  0  0  0  0  0  0  0  0  0  0  0
    0.6706    1.2151    5.2026 H   0  0  0  0  0  0  0  0  0  0  0  0
    2.0663    0.9567    4.3956 H   0  0  0  0  0  0  0  0  0  0  0  0
    1.6679   -0.0869    5.6950 H   0  0  0  0  0  0  0  0  0  0  0  0
    0.3937   -0.5604    3.6385 S   0  0  0  0  0  0  0  0  0  0  0  0
    1.7802   -1.3398    2.7681 C   0  0  0  0  0  0  0  0  0  0  0  0
    2.6235   -0.8661    3.0112 H   0  0  0  0  0  0  0  0  0  0  0  0
    1.8376   -2.2974    3.0403 H   0  0  0  0  0  0  0  0  0  0  0  0
    1.6242   -1.2747    1.7853 H   0  0  0  0  0  0  0  0  0  0  0  0
  1  5  1  0
  5  8  1  0
  1  2  1  0
  1  3  1  0
  1  4  1  0
  5  6  1  0
  5  7  1  0
  8  9  1  0
  8 10  1  0
  8 11  1  0
 12 16  1  0
 16 17  1  0
 12 13  1  0
 12 14  1  0
 12 15  1  0
 17 18  1  0
 17 19  1  0
 17 20  1  0
M  CHG  1   8   1
M  END
>  <PDB_ID>  (269) 
pdb2gtr

>  <RESIDUE_NAME>  (269) 
LYS   MET

>  <FRAG_NAME>  (269) 
ETAM   MSM

>  <FRAG_ATOM_NUM>  (269) 
fragi: 11  fragj: 9

>  <atom.prop.CHAIN_ID>  (269) 
A A A A A A A A A A A Z Z Z Z Z Z Z Z Z

>  <atom.prop.IS_HEAVY_ATOM>  (269) 
1 0 0 0 1 0 0 1 0 0 0 1 0 0 0 1 1 0 0 0

>  <DIFUSE_FUNC_ATOM>  (269) 
n/a

>  <FINAL_SINGLE_POINT_ENERGY>  (269) 
0

>  <NONCOV_INTER_ENERGY_QM>  (269) 
0

>  <FF_Energy>  (269) 
-2.2

>  <QM_Energy>  (269) 
-7.8

>  <source>  (269) 
ETAM_MSM

>  <Index>  (269) 
1546

$$$$
ETAM-pdb1g5b-A-LYS-194:MSM-pdb1g5b-A-MET-199
     RDKit          3D

 20 18  0  0  0  0  0  0  0  0999 V2000
    1.2498    0.8728    0.0000 C   0  0  0  0  0  0  0  0  0  0  0  0
    1.1909    1.5056    0.7626 H   0  0  0  0  0  0  0  0  0  0  0  0
    1.2899    1.3634   -0.8615 H   0  0  0  0  0  0  0  0  0  0  0  0
    2.1489    0.2663    0.1086 H   0  0  0  0  0  0  0  0  0  0  0  0
    0.0000    0.0000    0.0000 C   0  0  0  0  0  0  0  0  0  0  0  0
    0.0118   -0.5832   -0.8169 H   0  0  0  0  0  0  0  0  0  0  0  0
    0.0112   -0.5838    0.8162 H   0  0  0  0  0  0  0  0  0  0  0  0
   -1.2498    0.8152   -0.0000 N   0  0  0  0  0  4  0  0  0  0  0  0
   -2.0415    0.2049   -0.0097 H   0  0  0  0  0  0  0  0  0  0  0  0
   -1.2730    1.3836    0.8214 H   0  0  0  0  0  0  0  0  0  0  0  0
   -1.2638    1.3971   -0.8120 H   0  0  0  0  0  0  0  0  0  0  0  0
    0.6897    0.6220    3.5838 C   0  0  0  0  0  0  0  0  0  0  0  0
    1.3082    1.0025    2.8704 H   0  0  0  0  0  0  0  0  0  0  0  0
    0.3866   -0.2909    3.2499 H   0  0  0  0  0  0  0  0  0  0  0  0
    1.2557    0.4898    4.5059 H   0  0  0  0  0  0  0  0  0  0  0  0
   -0.7294    1.7092    3.8431 S   0  0  0  0  0  0  0  0  0  0  0  0
    0.1075    3.2205    4.3921 C   0  0  0  0  0  0  0  0  0  0  0  0
    1.0877    3.1233    4.2363 H   0  0  0  0  0  0  0  0  0  0  0  0
   -0.2446    3.9945    3.8706 H   0  0  0  0  0  0  0  0  0  0  0  0
   -0.0712    3.3560    5.3645 H   0  0  0  0  0  0  0  0  0  0  0  0
  1  5  1  0
  5  8  1  0
  1  2  1  0
  1  3  1  0
  1  4  1  0
  5  6  1  0
  5  7  1  0
  8  9  1  0
  8 10  1  0
  8 11  1  0
 12 16  1  0
 16 17  1  0
 12 13  1  0
 12 14  1  0
 12 15  1  0
 17 18  1  0
 17 19  1  0
 17 20  1  0
M  CHG  1   8   1
M  END
>  <PDB_ID>  (270) 
pdb1g5b

>  <RESIDUE_NAME>  (270) 
LYS   MET

>  <FRAG_NAME>  (270) 
ETAM   MSM

>  <FRAG_ATOM_NUM>  (270) 
fragi: 11  fragj: 9

>  <atom.prop.CHAIN_ID>  (270) 
A A A A A A A A A A A Z Z Z Z Z Z Z Z Z

>  <atom.prop.IS_HEAVY_ATOM>  (270) 
1 0 0 0 1 0 0 1 0 0 0 1 0 0 0 1 1 0 0 0

>  <DIFUSE_FUNC_ATOM>  (270) 
n/a

>  <FINAL_SINGLE_POINT_ENERGY>  (270) 
0

>  <NONCOV_INTER_ENERGY_QM>  (270) 
0

>  <FF_Energy>  (270) 
-3.68

>  <QM_Energy>  (270) 
-10.02

>  <source>  (270) 
ETAM_MSM

>  <Index>  (270) 
1552

$$$$
ETAM-pdb2h1k-B-LYS-57:MSM-pdb2h1k-B-MET-54
     RDKit          3D

 20 18  0  0  0  0  0  0  0  0999 V2000
    1.2327    0.8708    0.0000 C   0  0  0  0  0  0  0  0  0  0  0  0
    1.2147    1.4522    0.8167 H   0  0  0  0  0  0  0  0  0  0  0  0
    1.2135    1.4525   -0.8167 H   0  0  0  0  0  0  0  0  0  0  0  0
    2.1588    0.2959    0.0001 H   0  0  0  0  0  0  0  0  0  0  0  0
    0.0000    0.0000    0.0000 C   0  0  0  0  0  0  0  0  0  0  0  0
    0.0071   -0.5804   -0.8158 H   0  0  0  0  0  0  0  0  0  0  0  0
    0.0075   -0.5797    0.8165 H   0  0  0  0  0  0  0  0  0  0  0  0
   -1.2327    0.8266   -0.0000 N   0  0  0  0  0  4  0  0  0  0  0  0
   -1.0169    1.7477    0.3254 H   0  0  0  0  0  0  0  0  0  0  0  0
   -1.5996    0.8788   -0.9279 H   0  0  0  0  0  0  0  0  0  0  0  0
   -1.9126    0.4111    0.6045 H   0  0  0  0  0  0  0  0  0  0  0  0
    1.4721    3.5531    5.1446 C   0  0  0  0  0  0  0  0  0  0  0  0
    0.7207    2.8904    5.3884 H   0  0  0  0  0  0  0  0  0  0  0  0
    1.3509    4.3384    5.8027 H   0  0  0  0  0  0  0  0  0  0  0  0
    2.4325    3.0777    5.3438 H   0  0  0  0  0  0  0  0  0  0  0  0
    1.2444    4.1469    3.4143 S   0  0  0  0  0  0  0  0  0  0  0  0
    0.5376    2.6086    2.6293 C   0  0  0  0  0  0  0  0  0  0  0  0
    0.3206    1.9744    3.3573 H   0  0  0  0  0  0  0  0  0  0  0  0
   -0.2742    2.8743    2.1307 H   0  0  0  0  0  0  0  0  0  0  0  0
    1.2269    2.2393    2.0244 H   0  0  0  0  0  0  0  0  0  0  0  0
  1  5  1  0
  5  8  1  0
  1  2  1  0
  1  3  1  0
  1  4  1  0
  5  6  1  0
  5  7  1  0
  8  9  1  0
  8 10  1  0
  8 11  1  0
 12 16  1  0
 16 17  1  0
 12 13  1  0
 12 14  1  0
 12 15  1  0
 17 18  1  0
 17 19  1  0
 17 20  1  0
M  CHG  1   8   1
M  END
>  <PDB_ID>  (271) 
pdb2h1k

>  <RESIDUE_NAME>  (271) 
LYS   MET

>  <FRAG_NAME>  (271) 
ETAM   MSM

>  <FRAG_ATOM_NUM>  (271) 
fragi: 11  fragj: 9

>  <atom.prop.CHAIN_ID>  (271) 
A A A A A A A A A A A Z Z Z Z Z Z Z Z Z

>  <atom.prop.IS_HEAVY_ATOM>  (271) 
1 0 0 0 1 0 0 1 0 0 0 1 0 0 0 1 1 0 0 0

>  <DIFUSE_FUNC_ATOM>  (271) 
n/a

>  <FINAL_SINGLE_POINT_ENERGY>  (271) 
0

>  <NONCOV_INTER_ENERGY_QM>  (271) 
0

>  <FF_Energy>  (271) 
46.37

>  <QM_Energy>  (271) 
6.04

>  <source>  (271) 
ETAM_MSM

>  <Index>  (271) 
1562

$$$$
ETAM-pdb2h6d-A-LYS-45:MSM-pdb2h6d-A-MET-93
     RDKit          3D

 20 18  0  0  0  0  0  0  0  0999 V2000
    1.2482    0.8775   -0.0000 C   0  0  0  0  0  0  0  0  0  0  0  0
    1.4328    1.1745    0.9248 H   0  0  0  0  0  0  0  0  0  0  0  0
    1.1009    1.6453   -0.6039 H   0  0  0  0  0  0  0  0  0  0  0  0
    2.1124    0.3191   -0.3594 H   0  0  0  0  0  0  0  0  0  0  0  0
    0.0000    0.0000    0.0000 C   0  0  0  0  0  0  0  0  0  0  0  0
   -0.0049   -0.5662   -0.8163 H   0  0  0  0  0  0  0  0  0  0  0  0
   -0.0046   -0.5661    0.8159 H   0  0  0  0  0  0  0  0  0  0  0  0
   -1.2482    0.8615   -0.0000 N   0  0  0  0  0  4  0  0  0  0  0  0
   -1.9128    0.4569   -0.6197 H   0  0  0  0  0  0  0  0  0  0  0  0
   -1.6129    0.8923    0.9258 H   0  0  0  0  0  0  0  0  0  0  0  0
   -1.0026    1.7762   -0.3055 H   0  0  0  0  0  0  0  0  0  0  0  0
    1.2678   -2.9169    4.9033 C   0  0  0  0  0  0  0  0  0  0  0  0
    1.2982   -2.5603    5.8752 H   0  0  0  0  0  0  0  0  0  0  0  0
    2.2527   -2.8730    4.5880 H   0  0  0  0  0  0  0  0  0  0  0  0
    0.9733   -3.9657    4.9404 H   0  0  0  0  0  0  0  0  0  0  0  0
    0.2211   -1.8861    3.8762 S   0  0  0  0  0  0  0  0  0  0  0  0
    0.6457   -2.5429    2.2828 C   0  0  0  0  0  0  0  0  0  0  0  0
   -0.0612   -3.1857    1.9764 H   0  0  0  0  0  0  0  0  0  0  0  0
    0.7206   -1.7988    1.6134 H   0  0  0  0  0  0  0  0  0  0  0  0
    1.5250   -3.0254    2.3323 H   0  0  0  0  0  0  0  0  0  0  0  0
  1  5  1  0
  5  8  1  0
  1  2  1  0
  1  3  1  0
  1  4  1  0
  5  6  1  0
  5  7  1  0
  8  9  1  0
  8 10  1  0
  8 11  1  0
 12 16  1  0
 16 17  1  0
 12 13  1  0
 12 14  1  0
 12 15  1  0
 17 18  1  0
 17 19  1  0
 17 20  1  0
M  CHG  1   8   1
M  END
>  <PDB_ID>  (272) 
pdb2h6d

>  <RESIDUE_NAME>  (272) 
LYS   MET

>  <FRAG_NAME>  (272) 
ETAM   MSM

>  <FRAG_ATOM_NUM>  (272) 
fragi: 11  fragj: 9

>  <atom.prop.CHAIN_ID>  (272) 
A A A A A A A A A A A Z Z Z Z Z Z Z Z Z

>  <atom.prop.IS_HEAVY_ATOM>  (272) 
1 0 0 0 1 0 0 1 0 0 0 1 0 0 0 1 1 0 0 0

>  <DIFUSE_FUNC_ATOM>  (272) 
n/a

>  <FINAL_SINGLE_POINT_ENERGY>  (272) 
0

>  <NONCOV_INTER_ENERGY_QM>  (272) 
0

>  <FF_Energy>  (272) 
9.26

>  <QM_Energy>  (272) 
-0.31

>  <source>  (272) 
ETAM_MSM

>  <Index>  (272) 
1581

$$$$
ETAM-pdb1g4m-B-LYS-232:MSM-pdb1g4m-B-MET-255
     RDKit          3D

 20 18  0  0  0  0  0  0  0  0999 V2000
    1.2588    0.8461    0.0000 C   0  0  0  0  0  0  0  0  0  0  0  0
    1.1825    1.5395   -0.7185 H   0  0  0  0  0  0  0  0  0  0  0  0
    2.0448    0.2567   -0.1936 H   0  0  0  0  0  0  0  0  0  0  0  0
    1.4409    1.3563    0.9459 H   0  0  0  0  0  0  0  0  0  0  0  0
    0.0000    0.0000    0.0000 C   0  0  0  0  0  0  0  0  0  0  0  0
    0.0093   -0.5987   -0.8163 H   0  0  0  0  0  0  0  0  0  0  0  0
    0.0088   -0.5994    0.8170 H   0  0  0  0  0  0  0  0  0  0  0  0
   -1.2588    0.7949   -0.0000 N   0  0  0  0  0  4  0  0  0  0  0  0
   -1.2039    1.5028    0.7040 H   0  0  0  0  0  0  0  0  0  0  0  0
   -1.3808    1.2221   -0.8958 H   0  0  0  0  0  0  0  0  0  0  0  0
   -2.0323    0.1909    0.1909 H   0  0  0  0  0  0  0  0  0  0  0  0
    4.5207   -3.5149    2.3760 C   0  0  0  0  0  0  0  0  0  0  0  0
    3.8047   -4.1086    1.9129 H   0  0  0  0  0  0  0  0  0  0  0  0
    4.1987   -3.4715    3.3635 H   0  0  0  0  0  0  0  0  0  0  0  0
    5.4662   -4.0570    2.3561 H   0  0  0  0  0  0  0  0  0  0  0  0
    4.5169   -1.8289    1.6375 S   0  0  0  0  0  0  0  0  0  0  0  0
    2.9356   -1.8621    0.7123 C   0  0  0  0  0  0  0  0  0  0  0  0
    2.2367   -2.2628    1.2960 H   0  0  0  0  0  0  0  0  0  0  0  0
    2.6918   -0.9288    0.4702 H   0  0  0  0  0  0  0  0  0  0  0  0
    3.0610   -2.4115   -0.1066 H   0  0  0  0  0  0  0  0  0  0  0  0
  1  5  1  0
  5  8  1  0
  1  2  1  0
  1  3  1  0
  1  4  1  0
  5  6  1  0
  5  7  1  0
  8  9  1  0
  8 10  1  0
  8 11  1  0
 12 16  1  0
 16 17  1  0
 12 13  1  0
 12 14  1  0
 12 15  1  0
 17 18  1  0
 17 19  1  0
 17 20  1  0
M  CHG  1   8   1
M  END
>  <PDB_ID>  (273) 
pdb1g4m

>  <RESIDUE_NAME>  (273) 
LYS   MET

>  <FRAG_NAME>  (273) 
ETAM   MSM

>  <FRAG_ATOM_NUM>  (273) 
fragi: 11  fragj: 9

>  <atom.prop.CHAIN_ID>  (273) 
A A A A A A A A A A A Z Z Z Z Z Z Z Z Z

>  <atom.prop.IS_HEAVY_ATOM>  (273) 
1 0 0 0 1 0 0 1 0 0 0 1 0 0 0 1 1 0 0 0

>  <DIFUSE_FUNC_ATOM>  (273) 
n/a

>  <FINAL_SINGLE_POINT_ENERGY>  (273) 
0

>  <NONCOV_INTER_ENERGY_QM>  (273) 
0

>  <FF_Energy>  (273) 
27.6

>  <QM_Energy>  (273) 
5.23

>  <source>  (273) 
ETAM_MSM

>  <Index>  (273) 
1582

$$$$
ETAM-pdb1g6w-B-LYS-191:MSM-pdb1g6w-B-MET-173
     RDKit          3D

 20 18  0  0  0  0  0  0  0  0999 V2000
    1.2413    0.8802   -0.0000 C   0  0  0  0  0  0  0  0  0  0  0  0
    1.2563    1.4091   -0.8392 H   0  0  0  0  0  0  0  0  0  0  0  0
    2.0430    0.2996    0.0653 H   0  0  0  0  0  0  0  0  0  0  0  0
    1.2341    1.5666    0.8467 H   0  0  0  0  0  0  0  0  0  0  0  0
    0.0000    0.0000    0.0000 C   0  0  0  0  0  0  0  0  0  0  0  0
    0.0093   -0.5756   -0.8161 H   0  0  0  0  0  0  0  0  0  0  0  0
    0.0088   -0.5761    0.8168 H   0  0  0  0  0  0  0  0  0  0  0  0
   -1.2413    0.8301   -0.0000 N   0  0  0  0  0  4  0  0  0  0  0  0
   -1.0261    1.7435    0.3409 H   0  0  0  0  0  0  0  0  0  0  0  0
   -1.5949    0.8934   -0.9323 H   0  0  0  0  0  0  0  0  0  0  0  0
   -1.9238    0.4017    0.5905 H   0  0  0  0  0  0  0  0  0  0  0  0
   -2.7124    0.1806   -3.1922 C   0  0  0  0  0  0  0  0  0  0  0  0
   -3.6554    0.5407   -2.9799 H   0  0  0  0  0  0  0  0  0  0  0  0
   -2.4903   -0.4478   -2.4057 H   0  0  0  0  0  0  0  0  0  0  0  0
   -2.7694   -0.4151   -4.1032 H   0  0  0  0  0  0  0  0  0  0  0  0
   -1.5186    1.5418   -3.2715 S   0  0  0  0  0  0  0  0  0  0  0  0
   -2.5301    2.8939   -3.8739 C   0  0  0  0  0  0  0  0  0  0  0  0
   -2.8008    2.7134   -4.8205 H   0  0  0  0  0  0  0  0  0  0  0  0
   -3.3485    2.9791   -3.3048 H   0  0  0  0  0  0  0  0  0  0  0  0
   -2.0080    3.7469   -3.8344 H   0  0  0  0  0  0  0  0  0  0  0  0
  1  5  1  0
  5  8  1  0
  1  2  1  0
  1  3  1  0
  1  4  1  0
  5  6  1  0
  5  7  1  0
  8  9  1  0
  8 10  1  0
  8 11  1  0
 12 16  1  0
 16 17  1  0
 12 13  1  0
 12 14  1  0
 12 15  1  0
 17 18  1  0
 17 19  1  0
 17 20  1  0
M  CHG  1   8   1
M  END
>  <PDB_ID>  (274) 
pdb1g6w

>  <RESIDUE_NAME>  (274) 
LYS   MET

>  <FRAG_NAME>  (274) 
ETAM   MSM

>  <FRAG_ATOM_NUM>  (274) 
fragi: 11  fragj: 9

>  <atom.prop.CHAIN_ID>  (274) 
A A A A A A A A A A A Z Z Z Z Z Z Z Z Z

>  <atom.prop.IS_HEAVY_ATOM>  (274) 
1 0 0 0 1 0 0 1 0 0 0 1 0 0 0 1 1 0 0 0

>  <DIFUSE_FUNC_ATOM>  (274) 
n/a

>  <FINAL_SINGLE_POINT_ENERGY>  (274) 
0

>  <NONCOV_INTER_ENERGY_QM>  (274) 
0

>  <FF_Energy>  (274) 
-4.86

>  <QM_Energy>  (274) 
-14.06

>  <source>  (274) 
ETAM_MSM

>  <Index>  (274) 
1585

$$$$
ETAM-pdb2h7o-A-LYS-491:MSM-pdb2h7o-A-MET-703
     RDKit          3D

 20 18  0  0  0  0  0  0  0  0999 V2000
    1.2633    0.8443    0.0000 C   0  0  0  0  0  0  0  0  0  0  0  0
    1.2605    1.4322   -0.8000 H   0  0  0  0  0  0  0  0  0  0  0  0
    2.0545    0.2445   -0.0105 H   0  0  0  0  0  0  0  0  0  0  0  0
    1.3272    1.4767    0.8855 H   0  0  0  0  0  0  0  0  0  0  0  0
    0.0000    0.0000    0.0000 C   0  0  0  0  0  0  0  0  0  0  0  0
   -0.0009   -0.5917   -0.8159 H   0  0  0  0  0  0  0  0  0  0  0  0
   -0.0009   -0.5918    0.8159 H   0  0  0  0  0  0  0  0  0  0  0  0
   -1.2633    0.8180   -0.0000 N   0  0  0  0  0  4  0  0  0  0  0  0
   -1.4206    1.1703    0.9196 H   0  0  0  0  0  0  0  0  0  0  0  0
   -1.1589    1.5733   -0.6423 H   0  0  0  0  0  0  0  0  0  0  0  0
   -2.0238    0.2371   -0.2774 H   0  0  0  0  0  0  0  0  0  0  0  0
   -3.4285    2.5788    1.3008 C   0  0  0  0  0  0  0  0  0  0  0  0
   -2.4514    2.2981    1.4045 H   0  0  0  0  0  0  0  0  0  0  0  0
   -3.5689    3.3601    1.9448 H   0  0  0  0  0  0  0  0  0  0  0  0
   -3.5544    2.9606    0.2877 H   0  0  0  0  0  0  0  0  0  0  0  0
   -4.5586    1.1616    1.7497 S   0  0  0  0  0  0  0  0  0  0  0  0
   -4.6108    1.2847    3.5672 C   0  0  0  0  0  0  0  0  0  0  0  0
   -5.0760    2.1292    3.8176 H   0  0  0  0  0  0  0  0  0  0  0  0
   -5.1070    0.4992    3.9267 H   0  0  0  0  0  0  0  0  0  0  0  0
   -3.6773    1.2901    3.9149 H   0  0  0  0  0  0  0  0  0  0  0  0
  1  5  1  0
  5  8  1  0
  1  2  1  0
  1  3  1  0
  1  4  1  0
  5  6  1  0
  5  7  1  0
  8  9  1  0
  8 10  1  0
  8 11  1  0
 12 16  1  0
 16 17  1  0
 12 13  1  0
 12 14  1  0
 12 15  1  0
 17 18  1  0
 17 19  1  0
 17 20  1  0
M  CHG  1   8   1
M  END
>  <PDB_ID>  (275) 
pdb2h7o

>  <RESIDUE_NAME>  (275) 
LYS   MET

>  <FRAG_NAME>  (275) 
ETAM   MSM

>  <FRAG_ATOM_NUM>  (275) 
fragi: 11  fragj: 9

>  <atom.prop.CHAIN_ID>  (275) 
A A A A A A A A A A A Z Z Z Z Z Z Z Z Z

>  <atom.prop.IS_HEAVY_ATOM>  (275) 
1 0 0 0 1 0 0 1 0 0 0 1 0 0 0 1 1 0 0 0

>  <DIFUSE_FUNC_ATOM>  (275) 
n/a

>  <FINAL_SINGLE_POINT_ENERGY>  (275) 
0

>  <NONCOV_INTER_ENERGY_QM>  (275) 
0

>  <FF_Energy>  (275) 
1.5

>  <QM_Energy>  (275) 
-3.55

>  <source>  (275) 
ETAM_MSM

>  <Index>  (275) 
1589

$$$$
ETAM-pdb2h9u-A-LYS-97:MSM-pdb2h9u-A-MET-28
     RDKit          3D

 20 18  0  0  0  0  0  0  0  0999 V2000
    1.2405    0.8680   -0.0000 C   0  0  0  0  0  0  0  0  0  0  0  0
    1.2747    1.3761    0.8547 H   0  0  0  0  0  0  0  0  0  0  0  0
    1.1933    1.4931   -0.7723 H   0  0  0  0  0  0  0  0  0  0  0  0
    2.1445    0.2654   -0.0883 H   0  0  0  0  0  0  0  0  0  0  0  0
    0.0000    0.0000    0.0000 C   0  0  0  0  0  0  0  0  0  0  0  0
    0.0096   -0.5847   -0.8159 H   0  0  0  0  0  0  0  0  0  0  0  0
    0.0097   -0.5843    0.8164 H   0  0  0  0  0  0  0  0  0  0  0  0
   -1.2405    0.8156   -0.0000 N   0  0  0  0  0  4  0  0  0  0  0  0
   -1.4589    1.0897    0.9364 H   0  0  0  0  0  0  0  0  0  0  0  0
   -1.1037    1.6316   -0.5624 H   0  0  0  0  0  0  0  0  0  0  0  0
   -1.9945    0.2748   -0.3742 H   0  0  0  0  0  0  0  0  0  0  0  0
   -3.2791    3.7033    3.8534 C   0  0  0  0  0  0  0  0  0  0  0  0
   -2.3185    3.6526    4.2010 H   0  0  0  0  0  0  0  0  0  0  0  0
   -3.8545    3.9630    4.6592 H   0  0  0  0  0  0  0  0  0  0  0  0
   -3.3386    4.5005    3.1124 H   0  0  0  0  0  0  0  0  0  0  0  0
   -3.8006    2.0997    3.1886 S   0  0  0  0  0  0  0  0  0  0  0  0
   -2.2960    1.4885    2.5317 C   0  0  0  0  0  0  0  0  0  0  0  0
   -1.5191    2.0536    2.8370 H   0  0  0  0  0  0  0  0  0  0  0  0
   -2.1352    0.5404    2.8346 H   0  0  0  0  0  0  0  0  0  0  0  0
   -2.3180    1.4994    1.5240 H   0  0  0  0  0  0  0  0  0  0  0  0
  1  5  1  0
  5  8  1  0
  1  2  1  0
  1  3  1  0
  1  4  1  0
  5  6  1  0
  5  7  1  0
  8  9  1  0
  8 10  1  0
  8 11  1  0
 12 16  1  0
 16 17  1  0
 12 13  1  0
 12 14  1  0
 12 15  1  0
 17 18  1  0
 17 19  1  0
 17 20  1  0
M  CHG  1   8   1
M  END
>  <PDB_ID>  (276) 
pdb2h9u

>  <RESIDUE_NAME>  (276) 
LYS   MET

>  <FRAG_NAME>  (276) 
ETAM   MSM

>  <FRAG_ATOM_NUM>  (276) 
fragi: 11  fragj: 9

>  <atom.prop.CHAIN_ID>  (276) 
A A A A A A A A A A A Z Z Z Z Z Z Z Z Z

>  <atom.prop.IS_HEAVY_ATOM>  (276) 
1 0 0 0 1 0 0 1 0 0 0 1 0 0 0 1 1 0 0 0

>  <DIFUSE_FUNC_ATOM>  (276) 
n/a

>  <FINAL_SINGLE_POINT_ENERGY>  (276) 
0

>  <NONCOV_INTER_ENERGY_QM>  (276) 
0

>  <FF_Energy>  (276) 
26.02

>  <QM_Energy>  (276) 
14.61

>  <source>  (276) 
ETAM_MSM

>  <Index>  (276) 
1598

$$$$
ETAM-pdb2hb6-A-LYS-264:MSM-pdb2hb6-A-MET-272
     RDKit          3D

 20 18  0  0  0  0  0  0  0  0999 V2000
    1.2397    0.8712    0.0000 C   0  0  0  0  0  0  0  0  0  0  0  0
    2.0258    0.3076    0.2362 H   0  0  0  0  0  0  0  0  0  0  0  0
    1.1207    1.5949    0.6728 H   0  0  0  0  0  0  0  0  0  0  0  0
    1.4106    1.3221   -0.9775 H   0  0  0  0  0  0  0  0  0  0  0  0
    0.0000    0.0000    0.0000 C   0  0  0  0  0  0  0  0  0  0  0  0
    0.0097   -0.5825   -0.8159 H   0  0  0  0  0  0  0  0  0  0  0  0
    0.0095   -0.5823    0.8168 H   0  0  0  0  0  0  0  0  0  0  0  0
   -1.2397    0.8194   -0.0000 N   0  0  0  0  0  4  0  0  0  0  0  0
   -1.3014    1.3294    0.8581 H   0  0  0  0  0  0  0  0  0  0  0  0
   -1.2155    1.4602   -0.7672 H   0  0  0  0  0  0  0  0  0  0  0  0
   -2.0347    0.2196   -0.0902 H   0  0  0  0  0  0  0  0  0  0  0  0
    1.0819    0.2235    3.5621 C   0  0  0  0  0  0  0  0  0  0  0  0
    1.6156    1.0145    3.9348 H   0  0  0  0  0  0  0  0  0  0  0  0
    1.3797    0.1237    2.5866 H   0  0  0  0  0  0  0  0  0  0  0  0
    1.3801   -0.6740    4.1039 H   0  0  0  0  0  0  0  0  0  0  0  0
   -0.6940    0.5432    3.6608 S   0  0  0  0  0  0  0  0  0  0  0  0
   -0.6890    2.2620    4.1720 C   0  0  0  0  0  0  0  0  0  0  0  0
   -0.4487    2.3217    5.1416 H   0  0  0  0  0  0  0  0  0  0  0  0
   -0.0175    2.7706    3.6308 H   0  0  0  0  0  0  0  0  0  0  0  0
   -1.5971    2.6564    4.0300 H   0  0  0  0  0  0  0  0  0  0  0  0
  1  5  1  0
  5  8  1  0
  1  2  1  0
  1  3  1  0
  1  4  1  0
  5  6  1  0
  5  7  1  0
  8  9  1  0
  8 10  1  0
  8 11  1  0
 12 16  1  0
 16 17  1  0
 12 13  1  0
 12 14  1  0
 12 15  1  0
 17 18  1  0
 17 19  1  0
 17 20  1  0
M  CHG  1   8   1
M  END
>  <PDB_ID>  (277) 
pdb2hb6

>  <RESIDUE_NAME>  (277) 
LYS   MET

>  <FRAG_NAME>  (277) 
ETAM   MSM

>  <FRAG_ATOM_NUM>  (277) 
fragi: 11  fragj: 9

>  <atom.prop.CHAIN_ID>  (277) 
A A A A A A A A A A A Z Z Z Z Z Z Z Z Z

>  <atom.prop.IS_HEAVY_ATOM>  (277) 
1 0 0 0 1 0 0 1 0 0 0 1 0 0 0 1 1 0 0 0

>  <DIFUSE_FUNC_ATOM>  (277) 
n/a

>  <FINAL_SINGLE_POINT_ENERGY>  (277) 
0

>  <NONCOV_INTER_ENERGY_QM>  (277) 
0

>  <FF_Energy>  (277) 
-4.21

>  <QM_Energy>  (277) 
-11.86

>  <source>  (277) 
ETAM_MSM

>  <Index>  (277) 
1603

$$$$
ETAM-pdb2hc4-A-LYS-173:MSM-pdb2hc4-A-MET-275
     RDKit          3D

 20 18  0  0  0  0  0  0  0  0999 V2000
    1.2566    0.8688   -0.0000 C   0  0  0  0  0  0  0  0  0  0  0  0
    1.2375    1.4507    0.8070 H   0  0  0  0  0  0  0  0  0  0  0  0
    1.2551    1.4238   -0.8261 H   0  0  0  0  0  0  0  0  0  0  0  0
    2.1647    0.2663    0.0207 H   0  0  0  0  0  0  0  0  0  0  0  0
    0.0000    0.0000    0.0000 C   0  0  0  0  0  0  0  0  0  0  0  0
    0.0100   -0.5839   -0.8161 H   0  0  0  0  0  0  0  0  0  0  0  0
    0.0090   -0.5841    0.8165 H   0  0  0  0  0  0  0  0  0  0  0  0
   -1.2566    0.8176    0.0000 N   0  0  0  0  0  4  0  0  0  0  0  0
   -1.4466    1.1237   -0.9306 H   0  0  0  0  0  0  0  0  0  0  0  0
   -2.0115    0.2563    0.3333 H   0  0  0  0  0  0  0  0  0  0  0  0
   -1.1322    1.6073    0.5977 H   0  0  0  0  0  0  0  0  0  0  0  0
   -1.0575    4.1508    4.3227 C   0  0  0  0  0  0  0  0  0  0  0  0
   -2.0178    4.4549    4.1125 H   0  0  0  0  0  0  0  0  0  0  0  0
   -0.4625    4.9478    4.0576 H   0  0  0  0  0  0  0  0  0  0  0  0
   -0.9741    4.0068    5.3999 H   0  0  0  0  0  0  0  0  0  0  0  0
   -0.6273    2.6821    3.3532 S   0  0  0  0  0  0  0  0  0  0  0  0
    0.9963    3.1158    2.7550 C   0  0  0  0  0  0  0  0  0  0  0  0
    1.2698    2.4838    2.0263 H   0  0  0  0  0  0  0  0  0  0  0  0
    0.9868    4.0504    2.3930 H   0  0  0  0  0  0  0  0  0  0  0  0
    1.6601    3.0603    3.5039 H   0  0  0  0  0  0  0  0  0  0  0  0
  1  5  1  0
  5  8  1  0
  1  2  1  0
  1  3  1  0
  1  4  1  0
  5  6  1  0
  5  7  1  0
  8  9  1  0
  8 10  1  0
  8 11  1  0
 12 16  1  0
 16 17  1  0
 12 13  1  0
 12 14  1  0
 12 15  1  0
 17 18  1  0
 17 19  1  0
 17 20  1  0
M  CHG  1   8   1
M  END
>  <PDB_ID>  (278) 
pdb2hc4

>  <RESIDUE_NAME>  (278) 
LYS   MET

>  <FRAG_NAME>  (278) 
ETAM   MSM

>  <FRAG_ATOM_NUM>  (278) 
fragi: 11  fragj: 9

>  <atom.prop.CHAIN_ID>  (278) 
A A A A A A A A A A A Z Z Z Z Z Z Z Z Z

>  <atom.prop.IS_HEAVY_ATOM>  (278) 
1 0 0 0 1 0 0 1 0 0 0 1 0 0 0 1 1 0 0 0

>  <DIFUSE_FUNC_ATOM>  (278) 
n/a

>  <FINAL_SINGLE_POINT_ENERGY>  (278) 
0

>  <NONCOV_INTER_ENERGY_QM>  (278) 
0

>  <FF_Energy>  (278) 
7.75

>  <QM_Energy>  (278) 
-6.84

>  <source>  (278) 
ETAM_MSM

>  <Index>  (278) 
1609

$$$$
ETAM-pdb1ggz-A-LYS-75:MSM-pdb1ggz-A-MET-71
     RDKit          3D

 20 18  0  0  0  0  0  0  0  0999 V2000
    1.2603    0.8922    0.0000 C   0  0  0  0  0  0  0  0  0  0  0  0
    2.0365    0.3477   -0.2364 H   0  0  0  0  0  0  0  0  0  0  0  0
    1.3433    1.3264    0.8707 H   0  0  0  0  0  0  0  0  0  0  0  0
    1.1494    1.6689   -0.7567 H   0  0  0  0  0  0  0  0  0  0  0  0
    0.0000    0.0000    0.0000 C   0  0  0  0  0  0  0  0  0  0  0  0
    0.0089   -0.5677   -0.8162 H   0  0  0  0  0  0  0  0  0  0  0  0
    0.0082   -0.5683    0.8162 H   0  0  0  0  0  0  0  0  0  0  0  0
   -1.2603    0.8427   -0.0000 N   0  0  0  0  0  4  0  0  0  0  0  0
   -1.9311    0.4110    0.5948 H   0  0  0  0  0  0  0  0  0  0  0  0
   -1.0352    1.7513    0.3366 H   0  0  0  0  0  0  0  0  0  0  0  0
   -1.6071    0.8960   -0.9311 H   0  0  0  0  0  0  0  0  0  0  0  0
    1.5479   -2.2672   -2.5773 C   0  0  0  0  0  0  0  0  0  0  0  0
    1.1303   -1.4340   -2.9539 H   0  0  0  0  0  0  0  0  0  0  0  0
    0.8437   -2.9825   -2.5221 H   0  0  0  0  0  0  0  0  0  0  0  0
    2.2750   -2.6071   -3.3149 H   0  0  0  0  0  0  0  0  0  0  0  0
    2.4163   -2.0309   -1.1544 S   0  0  0  0  0  0  0  0  0  0  0  0
    2.5724   -3.7916   -0.6719 C   0  0  0  0  0  0  0  0  0  0  0  0
    2.7270   -3.8367    0.3092 H   0  0  0  0  0  0  0  0  0  0  0  0
    1.7293   -4.2603   -0.9127 H   0  0  0  0  0  0  0  0  0  0  0  0
    3.3422   -4.1859   -1.1635 H   0  0  0  0  0  0  0  0  0  0  0  0
  1  5  1  0
  5  8  1  0
  1  2  1  0
  1  3  1  0
  1  4  1  0
  5  6  1  0
  5  7  1  0
  8  9  1  0
  8 10  1  0
  8 11  1  0
 12 16  1  0
 16 17  1  0
 12 13  1  0
 12 14  1  0
 12 15  1  0
 17 18  1  0
 17 19  1  0
 17 20  1  0
M  CHG  1   8   1
M  END
>  <PDB_ID>  (279) 
pdb1ggz

>  <RESIDUE_NAME>  (279) 
LYS   MET

>  <FRAG_NAME>  (279) 
ETAM   MSM

>  <FRAG_ATOM_NUM>  (279) 
fragi: 11  fragj: 9

>  <atom.prop.CHAIN_ID>  (279) 
A A A A A A A A A A A Z Z Z Z Z Z Z Z Z

>  <atom.prop.IS_HEAVY_ATOM>  (279) 
1 0 0 0 1 0 0 1 0 0 0 1 0 0 0 1 1 0 0 0

>  <DIFUSE_FUNC_ATOM>  (279) 
n/a

>  <FINAL_SINGLE_POINT_ENERGY>  (279) 
0

>  <NONCOV_INTER_ENERGY_QM>  (279) 
0

>  <FF_Energy>  (279) 
-0.82

>  <QM_Energy>  (279) 
-6.4

>  <source>  (279) 
ETAM_MSM

>  <Index>  (279) 
1610

$$$$
ETAM-pdb2hd1-A-LYS-399:MSM-pdb2hd1-A-MET-365
     RDKit          3D

 20 18  0  0  0  0  0  0  0  0999 V2000
    1.2609    0.8416   -0.0000 C   0  0  0  0  0  0  0  0  0  0  0  0
    2.0267    0.2705   -0.3014 H   0  0  0  0  0  0  0  0  0  0  0  0
    1.4340    1.1572    0.9348 H   0  0  0  0  0  0  0  0  0  0  0  0
    1.1965    1.7102   -0.6553 H   0  0  0  0  0  0  0  0  0  0  0  0
    0.0000    0.0000    0.0000 C   0  0  0  0  0  0  0  0  0  0  0  0
    0.0217   -0.6125   -0.8164 H   0  0  0  0  0  0  0  0  0  0  0  0
    0.0215   -0.6117    0.8163 H   0  0  0  0  0  0  0  0  0  0  0  0
   -1.2609    0.7597    0.0000 N   0  0  0  0  0  4  0  0  0  0  0  0
   -1.2638    1.4133   -0.7595 H   0  0  0  0  0  0  0  0  0  0  0  0
   -2.0353    0.1319   -0.1029 H   0  0  0  0  0  0  0  0  0  0  0  0
   -1.3565    1.2596    0.8630 H   0  0  0  0  0  0  0  0  0  0  0  0
   -5.3764    0.8111   -3.5255 C   0  0  0  0  0  0  0  0  0  0  0  0
   -4.8520    1.3198   -4.2431 H   0  0  0  0  0  0  0  0  0  0  0  0
   -6.3055    1.2409   -3.5032 H   0  0  0  0  0  0  0  0  0  0  0  0
   -5.4796   -0.2273   -3.8405 H   0  0  0  0  0  0  0  0  0  0  0  0
   -4.5602    0.9855   -1.9021 S   0  0  0  0  0  0  0  0  0  0  0  0
   -5.7672    0.2249   -0.8036 C   0  0  0  0  0  0  0  0  0  0  0  0
   -6.0005   -0.6845   -1.1466 H   0  0  0  0  0  0  0  0  0  0  0  0
   -5.3772    0.1477    0.1137 H   0  0  0  0  0  0  0  0  0  0  0  0
   -6.5896    0.7923   -0.7711 H   0  0  0  0  0  0  0  0  0  0  0  0
  1  5  1  0
  5  8  1  0
  1  2  1  0
  1  3  1  0
  1  4  1  0
  5  6  1  0
  5  7  1  0
  8  9  1  0
  8 10  1  0
  8 11  1  0
 12 16  1  0
 16 17  1  0
 12 13  1  0
 12 14  1  0
 12 15  1  0
 17 18  1  0
 17 19  1  0
 17 20  1  0
M  CHG  1   8   1
M  END
>  <PDB_ID>  (280) 
pdb2hd1

>  <RESIDUE_NAME>  (280) 
LYS   MET

>  <FRAG_NAME>  (280) 
ETAM   MSM

>  <FRAG_ATOM_NUM>  (280) 
fragi: 11  fragj: 9

>  <atom.prop.CHAIN_ID>  (280) 
A A A A A A A A A A A Z Z Z Z Z Z Z Z Z

>  <atom.prop.IS_HEAVY_ATOM>  (280) 
1 0 0 0 1 0 0 1 0 0 0 1 0 0 0 1 1 0 0 0

>  <DIFUSE_FUNC_ATOM>  (280) 
n/a

>  <FINAL_SINGLE_POINT_ENERGY>  (280) 
0

>  <NONCOV_INTER_ENERGY_QM>  (280) 
0

>  <FF_Energy>  (280) 
-4.41

>  <QM_Energy>  (280) 
-10.07

>  <source>  (280) 
ETAM_MSM

>  <Index>  (280) 
1612

$$$$
ETAM-pdb1ghq-A-LYS-91:MSM-pdb1ghq-A-MET-281
     RDKit          3D

 20 18  0  0  0  0  0  0  0  0999 V2000
    1.2757    0.8574    0.0000 C   0  0  0  0  0  0  0  0  0  0  0  0
    2.0485    0.2569   -0.2699 H   0  0  0  0  0  0  0  0  0  0  0  0
    1.4470    1.1523    0.9560 H   0  0  0  0  0  0  0  0  0  0  0  0
    1.2708    1.7360   -0.6450 H   0  0  0  0  0  0  0  0  0  0  0  0
    0.0000    0.0000    0.0000 C   0  0  0  0  0  0  0  0  0  0  0  0
    0.0290   -0.6075   -0.8161 H   0  0  0  0  0  0  0  0  0  0  0  0
    0.0282   -0.6079    0.8165 H   0  0  0  0  0  0  0  0  0  0  0  0
   -1.2757    0.7568    0.0000 N   0  0  0  0  0  4  0  0  0  0  0  0
   -1.1802    1.5728   -0.5719 H   0  0  0  0  0  0  0  0  0  0  0  0
   -2.0073    0.1790   -0.3640 H   0  0  0  0  0  0  0  0  0  0  0  0
   -1.5022    1.0302    0.9356 H   0  0  0  0  0  0  0  0  0  0  0  0
   -2.3075   -2.2283    4.2084 C   0  0  0  0  0  0  0  0  0  0  0  0
   -1.3400   -2.5969    4.1901 H   0  0  0  0  0  0  0  0  0  0  0  0
   -2.8713   -2.9802    3.7721 H   0  0  0  0  0  0  0  0  0  0  0  0
   -2.6147   -2.1323    5.2498 H   0  0  0  0  0  0  0  0  0  0  0  0
   -2.4191   -0.7016    3.2183 S   0  0  0  0  0  0  0  0  0  0  0  0
   -4.0349   -0.0485    3.6820 C   0  0  0  0  0  0  0  0  0  0  0  0
   -4.3477    0.5875    2.9785 H   0  0  0  0  0  0  0  0  0  0  0  0
   -4.6834   -0.8032    3.7664 H   0  0  0  0  0  0  0  0  0  0  0  0
   -3.9589    0.4288    4.5569 H   0  0  0  0  0  0  0  0  0  0  0  0
  1  5  1  0
  5  8  1  0
  1  2  1  0
  1  3  1  0
  1  4  1  0
  5  6  1  0
  5  7  1  0
  8  9  1  0
  8 10  1  0
  8 11  1  0
 12 16  1  0
 16 17  1  0
 12 13  1  0
 12 14  1  0
 12 15  1  0
 17 18  1  0
 17 19  1  0
 17 20  1  0
M  CHG  1   8   1
M  END
>  <PDB_ID>  (281) 
pdb1ghq

>  <RESIDUE_NAME>  (281) 
LYS   MET

>  <FRAG_NAME>  (281) 
ETAM   MSM

>  <FRAG_ATOM_NUM>  (281) 
fragi: 11  fragj: 9

>  <atom.prop.CHAIN_ID>  (281) 
A A A A A A A A A A A Z Z Z Z Z Z Z Z Z

>  <atom.prop.IS_HEAVY_ATOM>  (281) 
1 0 0 0 1 0 0 1 0 0 0 1 0 0 0 1 1 0 0 0

>  <DIFUSE_FUNC_ATOM>  (281) 
n/a

>  <FINAL_SINGLE_POINT_ENERGY>  (281) 
0

>  <NONCOV_INTER_ENERGY_QM>  (281) 
0

>  <FF_Energy>  (281) 
-5.09

>  <QM_Energy>  (281) 
-11.44

>  <source>  (281) 
ETAM_MSM

>  <Index>  (281) 
1617

$$$$
ETAM-pdb1gjy-A-LYS-146:MSM-pdb1gjy-B-MET-86
     RDKit          3D

 20 18  0  0  0  0  0  0  0  0999 V2000
    1.2594    0.8892    0.0000 C   0  0  0  0  0  0  0  0  0  0  0  0
    0.9918    1.8095    0.2485 H   0  0  0  0  0  0  0  0  0  0  0  0
    1.6578    0.8668   -0.9072 H   0  0  0  0  0  0  0  0  0  0  0  0
    1.9997    0.5346    0.7172 H   0  0  0  0  0  0  0  0  0  0  0  0
    0.0000    0.0000    0.0000 C   0  0  0  0  0  0  0  0  0  0  0  0
    0.0214   -0.5799   -0.8166 H   0  0  0  0  0  0  0  0  0  0  0  0
    0.0204   -0.5801    0.8164 H   0  0  0  0  0  0  0  0  0  0  0  0
   -1.2594    0.8075   -0.0000 N   0  0  0  0  0  4  0  0  0  0  0  0
   -1.2440    1.4390    0.7727 H   0  0  0  0  0  0  0  0  0  0  0  0
   -1.3196    1.3203   -0.8541 H   0  0  0  0  0  0  0  0  0  0  0  0
   -2.0422    0.1939    0.0812 H   0  0  0  0  0  0  0  0  0  0  0  0
   -0.3511    3.8533   -0.4666 C   0  0  0  0  0  0  0  0  0  0  0  0
   -1.1493    3.2984   -0.1013 H   0  0  0  0  0  0  0  0  0  0  0  0
    0.3962    3.1469   -0.6062 H   0  0  0  0  0  0  0  0  0  0  0  0
   -0.6376    4.2184   -1.4529 H   0  0  0  0  0  0  0  0  0  0  0  0
    0.1880    5.1093    0.8065 S   0  0  0  0  0  0  0  0  0  0  0  0
    2.0116    4.7117    1.0476 C   0  0  0  0  0  0  0  0  0  0  0  0
    2.2648    5.0409    1.9430 H   0  0  0  0  0  0  0  0  0  0  0  0
    2.1070    3.7323    0.9779 H   0  0  0  0  0  0  0  0  0  0  0  0
    2.5073    5.1783    0.3333 H   0  0  0  0  0  0  0  0  0  0  0  0
  1  5  1  0
  5  8  1  0
  1  2  1  0
  1  3  1  0
  1  4  1  0
  5  6  1  0
  5  7  1  0
  8  9  1  0
  8 10  1  0
  8 11  1  0
 12 16  1  0
 16 17  1  0
 12 13  1  0
 12 14  1  0
 12 15  1  0
 17 18  1  0
 17 19  1  0
 17 20  1  0
M  CHG  1   8   1
M  END
>  <PDB_ID>  (282) 
pdb1gjy

>  <RESIDUE_NAME>  (282) 
LYS   MET

>  <FRAG_NAME>  (282) 
ETAM   MSM

>  <FRAG_ATOM_NUM>  (282) 
fragi: 11  fragj: 9

>  <atom.prop.CHAIN_ID>  (282) 
A A A A A A A A A A A Z Z Z Z Z Z Z Z Z

>  <atom.prop.IS_HEAVY_ATOM>  (282) 
1 0 0 0 1 0 0 1 0 0 0 1 0 0 0 1 1 0 0 0

>  <DIFUSE_FUNC_ATOM>  (282) 
n/a

>  <FINAL_SINGLE_POINT_ENERGY>  (282) 
0

>  <NONCOV_INTER_ENERGY_QM>  (282) 
0

>  <FF_Energy>  (282) 
9.62

>  <QM_Energy>  (282) 
2.59

>  <source>  (282) 
ETAM_MSM

>  <Index>  (282) 
1619

$$$$
ETAM-pdb2heu-C-LYS-268:MSM-pdb2heu-A-MET-401
     RDKit          3D

 20 18  0  0  0  0  0  0  0  0999 V2000
    1.1626    0.9752   -0.0000 C   0  0  0  0  0  0  0  0  0  0  0  0
    1.9771    0.4819    0.3209 H   0  0  0  0  0  0  0  0  0  0  0  0
    0.9492    1.7061    0.6543 H   0  0  0  0  0  0  0  0  0  0  0  0
    1.3506    1.4007   -0.9857 H   0  0  0  0  0  0  0  0  0  0  0  0
    0.0000    0.0000    0.0000 C   0  0  0  0  0  0  0  0  0  0  0  0
    0.1747   -0.6289   -0.8162 H   0  0  0  0  0  0  0  0  0  0  0  0
    0.1741   -0.6283    0.8162 H   0  0  0  0  0  0  0  0  0  0  0  0
   -1.1626    0.5372    0.0000 N   0  0  0  0  0  4  0  0  0  0  0  0
   -1.4928    0.8612   -0.9296 H   0  0  0  0  0  0  0  0  0  0  0  0
   -1.9281   -0.0822    0.3308 H   0  0  0  0  0  0  0  0  0  0  0  0
   -1.2525    1.3806    0.5992 H   0  0  0  0  0  0  0  0  0  0  0  0
   -4.9257    2.9988    0.9066 C   0  0  0  0  0  0  0  0  0  0  0  0
   -4.8425    3.2308   -0.0893 H   0  0  0  0  0  0  0  0  0  0  0  0
   -5.2463    3.8597    1.3627 H   0  0  0  0  0  0  0  0  0  0  0  0
   -5.6892    2.2302    1.0267 H   0  0  0  0  0  0  0  0  0  0  0  0
   -3.3414    2.4823    1.5705 S   0  0  0  0  0  0  0  0  0  0  0  0
   -3.8181    2.2423    3.2485 C   0  0  0  0  0  0  0  0  0  0  0  0
   -3.0958    2.5683    3.8687 H   0  0  0  0  0  0  0  0  0  0  0  0
   -4.6640    2.7482    3.4490 H   0  0  0  0  0  0  0  0  0  0  0  0
   -3.9786    1.2661    3.4316 H   0  0  0  0  0  0  0  0  0  0  0  0
  1  5  1  0
  5  8  1  0
  1  2  1  0
  1  3  1  0
  1  4  1  0
  5  6  1  0
  5  7  1  0
  8  9  1  0
  8 10  1  0
  8 11  1  0
 12 16  1  0
 16 17  1  0
 12 13  1  0
 12 14  1  0
 12 15  1  0
 17 18  1  0
 17 19  1  0
 17 20  1  0
M  CHG  1   8   1
M  END
>  <PDB_ID>  (283) 
pdb2heu

>  <RESIDUE_NAME>  (283) 
LYS   MET

>  <FRAG_NAME>  (283) 
ETAM   MSM

>  <FRAG_ATOM_NUM>  (283) 
fragi: 11  fragj: 9

>  <atom.prop.CHAIN_ID>  (283) 
A A A A A A A A A A A Z Z Z Z Z Z Z Z Z

>  <atom.prop.IS_HEAVY_ATOM>  (283) 
1 0 0 0 1 0 0 1 0 0 0 1 0 0 0 1 1 0 0 0

>  <DIFUSE_FUNC_ATOM>  (283) 
n/a

>  <FINAL_SINGLE_POINT_ENERGY>  (283) 
0

>  <NONCOV_INTER_ENERGY_QM>  (283) 
0

>  <FF_Energy>  (283) 
-5.78

>  <QM_Energy>  (283) 
-14.86

>  <source>  (283) 
ETAM_MSM

>  <Index>  (283) 
1622

$$$$
ETAM-pdb1gg1-B-LYS-186:MSM-pdb1gg1-B-MET-300
     RDKit          3D

 20 18  0  0  0  0  0  0  0  0999 V2000
    1.2041    0.9220   -0.0000 C   0  0  0  0  0  0  0  0  0  0  0  0
    1.3822    1.2104    0.9272 H   0  0  0  0  0  0  0  0  0  0  0  0
    1.0148    1.6904   -0.5905 H   0  0  0  0  0  0  0  0  0  0  0  0
    2.0713    0.3818   -0.3798 H   0  0  0  0  0  0  0  0  0  0  0  0
    0.0000    0.0000    0.0000 C   0  0  0  0  0  0  0  0  0  0  0  0
    0.0106   -0.5486   -0.8162 H   0  0  0  0  0  0  0  0  0  0  0  0
    0.0100   -0.5485    0.8164 H   0  0  0  0  0  0  0  0  0  0  0  0
   -1.2041    0.8699    0.0000 N   0  0  0  0  0  4  0  0  0  0  0  0
   -1.8384    0.5617    0.7096 H   0  0  0  0  0  0  0  0  0  0  0  0
   -0.9328    1.8146    0.1831 H   0  0  0  0  0  0  0  0  0  0  0  0
   -1.6519    0.8186   -0.8929 H   0  0  0  0  0  0  0  0  0  0  0  0
   -3.9987   -3.7365   -0.3590 C   0  0  0  0  0  0  0  0  0  0  0  0
   -4.8983   -3.2456   -0.3467 H   0  0  0  0  0  0  0  0  0  0  0  0
   -4.1027   -4.5191    0.2943 H   0  0  0  0  0  0  0  0  0  0  0  0
   -3.8295   -4.1340   -1.3598 H   0  0  0  0  0  0  0  0  0  0  0  0
   -2.6734   -2.6469    0.1606 S   0  0  0  0  0  0  0  0  0  0  0  0
   -1.5629   -3.8524    0.8598 C   0  0  0  0  0  0  0  0  0  0  0  0
   -0.6270   -3.6755    0.5453 H   0  0  0  0  0  0  0  0  0  0  0  0
   -1.5884   -3.7990    1.8609 H   0  0  0  0  0  0  0  0  0  0  0  0
   -1.8371   -4.7735    0.5735 H   0  0  0  0  0  0  0  0  0  0  0  0
  1  5  1  0
  5  8  1  0
  1  2  1  0
  1  3  1  0
  1  4  1  0
  5  6  1  0
  5  7  1  0
  8  9  1  0
  8 10  1  0
  8 11  1  0
 12 16  1  0
 16 17  1  0
 12 13  1  0
 12 14  1  0
 12 15  1  0
 17 18  1  0
 17 19  1  0
 17 20  1  0
M  CHG  1   8   1
M  END
>  <PDB_ID>  (284) 
pdb1gg1

>  <RESIDUE_NAME>  (284) 
LYS   MET

>  <FRAG_NAME>  (284) 
ETAM   MSM

>  <FRAG_ATOM_NUM>  (284) 
fragi: 11  fragj: 9

>  <atom.prop.CHAIN_ID>  (284) 
A A A A A A A A A A A Z Z Z Z Z Z Z Z Z

>  <atom.prop.IS_HEAVY_ATOM>  (284) 
1 0 0 0 1 0 0 1 0 0 0 1 0 0 0 1 1 0 0 0

>  <DIFUSE_FUNC_ATOM>  (284) 
n/a

>  <FINAL_SINGLE_POINT_ENERGY>  (284) 
0

>  <NONCOV_INTER_ENERGY_QM>  (284) 
0

>  <FF_Energy>  (284) 
-5.13

>  <QM_Energy>  (284) 
-10.46

>  <source>  (284) 
ETAM_MSM

>  <Index>  (284) 
1627

$$$$
ETAM-pdb1gmu-A-LYS-31:MSM-pdb1gmu-A-MET-1
     RDKit          3D

 20 18  0  0  0  0  0  0  0  0999 V2000
    1.2469    0.8701    0.0000 C   0  0  0  0  0  0  0  0  0  0  0  0
    1.2310    1.4496   -0.8081 H   0  0  0  0  0  0  0  0  0  0  0  0
    2.0470    0.2799   -0.0123 H   0  0  0  0  0  0  0  0  0  0  0  0
    1.2905    1.5037    0.8859 H   0  0  0  0  0  0  0  0  0  0  0  0
    0.0000    0.0000    0.0000 C   0  0  0  0  0  0  0  0  0  0  0  0
    0.0099   -0.5836   -0.8159 H   0  0  0  0  0  0  0  0  0  0  0  0
    0.0093   -0.5836    0.8162 H   0  0  0  0  0  0  0  0  0  0  0  0
   -1.2469    0.8171   -0.0000 N   0  0  0  0  0  4  0  0  0  0  0  0
   -1.0112    1.7791    0.1336 H   0  0  0  0  0  0  0  0  0  0  0  0
   -1.7158    0.7045   -0.8754 H   0  0  0  0  0  0  0  0  0  0  0  0
   -1.8421    0.5114    0.7421 H   0  0  0  0  0  0  0  0  0  0  0  0
   -4.8512    3.3064   -1.3647 C   0  0  0  0  0  0  0  0  0  0  0  0
   -5.2630    2.3851   -1.5150 H   0  0  0  0  0  0  0  0  0  0  0  0
   -4.1065    3.4028   -2.0564 H   0  0  0  0  0  0  0  0  0  0  0  0
   -5.6038    4.0807   -1.5136 H   0  0  0  0  0  0  0  0  0  0  0  0
   -4.0324    3.3076    0.3866 S   0  0  0  0  0  0  0  0  0  0  0  0
   -2.5395    4.4630   -0.0043 C   0  0  0  0  0  0  0  0  0  0  0  0
   -2.3784    4.3745   -0.9675 H   0  0  0  0  0  0  0  0  0  0  0  0
   -2.8245    5.3648    0.2526 H   0  0  0  0  0  0  0  0  0  0  0  0
   -1.7941    4.1299    0.5391 H   0  0  0  0  0  0  0  0  0  0  0  0
  1  5  1  0
  5  8  1  0
  1  2  1  0
  1  3  1  0
  1  4  1  0
  5  6  1  0
  5  7  1  0
  8  9  1  0
  8 10  1  0
  8 11  1  0
 12 16  1  0
 16 17  1  0
 12 13  1  0
 12 14  1  0
 12 15  1  0
 17 18  1  0
 17 19  1  0
 17 20  1  0
M  CHG  1   8   1
M  END
>  <PDB_ID>  (285) 
pdb1gmu

>  <RESIDUE_NAME>  (285) 
LYS   MET

>  <FRAG_NAME>  (285) 
ETAM   MSM

>  <FRAG_ATOM_NUM>  (285) 
fragi: 11  fragj: 9

>  <atom.prop.CHAIN_ID>  (285) 
A A A A A A A A A A A Z Z Z Z Z Z Z Z Z

>  <atom.prop.IS_HEAVY_ATOM>  (285) 
1 0 0 0 1 0 0 1 0 0 0 1 0 0 0 1 1 0 0 0

>  <DIFUSE_FUNC_ATOM>  (285) 
n/a

>  <FINAL_SINGLE_POINT_ENERGY>  (285) 
0

>  <NONCOV_INTER_ENERGY_QM>  (285) 
0

>  <FF_Energy>  (285) 
-2.91

>  <QM_Energy>  (285) 
-8.13

>  <source>  (285) 
ETAM_MSM

>  <Index>  (285) 
1629

$$$$
ETAM-pdb2heu-A-LYS-268:MSM-pdb2heu-B-MET-401
     RDKit          3D

 20 18  0  0  0  0  0  0  0  0999 V2000
    1.2306    1.0705    0.0000 C   0  0  0  0  0  0  0  0  0  0  0  0
    1.9602    0.6395    0.4857 H   0  0  0  0  0  0  0  0  0  0  0  0
    0.8881    1.8707    0.4423 H   0  0  0  0  0  0  0  0  0  0  0  0
    1.5267    1.2910   -1.0256 H   0  0  0  0  0  0  0  0  0  0  0  0
    0.0000    0.0000    0.0000 C   0  0  0  0  0  0  0  0  0  0  0  0
    0.1697   -0.5715   -0.8160 H   0  0  0  0  0  0  0  0  0  0  0  0
    0.1699   -0.5717    0.8163 H   0  0  0  0  0  0  0  0  0  0  0  0
   -1.2306    0.6146   -0.0000 N   0  0  0  0  0  4  0  0  0  0  0  0
   -1.1831    1.5781   -0.3306 H   0  0  0  0  0  0  0  0  0  0  0  0
   -1.9033    0.1370   -0.5997 H   0  0  0  0  0  0  0  0  0  0  0  0
   -1.6466    0.6487    0.9300 H   0  0  0  0  0  0  0  0  0  0  0  0
   -4.9871    3.1343    0.2991 C   0  0  0  0  0  0  0  0  0  0  0  0
   -4.8977    3.2903   -0.7321 H   0  0  0  0  0  0  0  0  0  0  0  0
   -5.2896    4.0746    0.6458 H   0  0  0  0  0  0  0  0  0  0  0  0
   -5.8064    2.4345    0.4636 H   0  0  0  0  0  0  0  0  0  0  0  0
   -3.4526    2.6631    1.0041 S   0  0  0  0  0  0  0  0  0  0  0  0
   -3.7986    2.5031    2.7434 C   0  0  0  0  0  0  0  0  0  0  0  0
   -3.7717    1.5368    3.0085 H   0  0  0  0  0  0  0  0  0  0  0  0
   -3.1141    3.0079    3.2756 H   0  0  0  0  0  0  0  0  0  0  0  0
   -4.7083    2.8733    2.9462 H   0  0  0  0  0  0  0  0  0  0  0  0
  1  5  1  0
  5  8  1  0
  1  2  1  0
  1  3  1  0
  1  4  1  0
  5  6  1  0
  5  7  1  0
  8  9  1  0
  8 10  1  0
  8 11  1  0
 12 16  1  0
 16 17  1  0
 12 13  1  0
 12 14  1  0
 12 15  1  0
 17 18  1  0
 17 19  1  0
 17 20  1  0
M  CHG  1   8   1
M  END
>  <PDB_ID>  (286) 
pdb2heu

>  <RESIDUE_NAME>  (286) 
LYS   MET

>  <FRAG_NAME>  (286) 
ETAM   MSM

>  <FRAG_ATOM_NUM>  (286) 
fragi: 11  fragj: 9

>  <atom.prop.CHAIN_ID>  (286) 
A A A A A A A A A A A Z Z Z Z Z Z Z Z Z

>  <atom.prop.IS_HEAVY_ATOM>  (286) 
1 0 0 0 1 0 0 1 0 0 0 1 0 0 0 1 1 0 0 0

>  <DIFUSE_FUNC_ATOM>  (286) 
n/a

>  <FINAL_SINGLE_POINT_ENERGY>  (286) 
0

>  <NONCOV_INTER_ENERGY_QM>  (286) 
0

>  <FF_Energy>  (286) 
-5.19

>  <QM_Energy>  (286) 
-14.03

>  <source>  (286) 
ETAM_MSM

>  <Index>  (286) 
1633

$$$$
ETAM-pdb2hiv-A-LYS-260:MSM-pdb2hiv-A-MET-412
     RDKit          3D

 20 18  0  0  0  0  0  0  0  0999 V2000
    1.2586    0.8865   -0.0000 C   0  0  0  0  0  0  0  0  0  0  0  0
    1.1869    1.5109   -0.7708 H   0  0  0  0  0  0  0  0  0  0  0  0
    2.0461    0.2899   -0.1092 H   0  0  0  0  0  0  0  0  0  0  0  0
    1.3399    1.4487    0.9303 H   0  0  0  0  0  0  0  0  0  0  0  0
    0.0000    0.0000    0.0000 C   0  0  0  0  0  0  0  0  0  0  0  0
    0.0101   -0.5728   -0.8158 H   0  0  0  0  0  0  0  0  0  0  0  0
    0.0095   -0.5722    0.8166 H   0  0  0  0  0  0  0  0  0  0  0  0
   -1.2586    0.8338    0.0000 N   0  0  0  0  0  4  0  0  0  0  0  0
   -1.9900    0.3108    0.4292 H   0  0  0  0  0  0  0  0  0  0  0  0
   -1.0886    1.6705    0.5129 H   0  0  0  0  0  0  0  0  0  0  0  0
   -1.4996    1.0518   -0.9420 H   0  0  0  0  0  0  0  0  0  0  0  0
    4.0769   -0.2114   -1.5496 C   0  0  0  0  0  0  0  0  0  0  0  0
    4.1004    0.2330   -0.6379 H   0  0  0  0  0  0  0  0  0  0  0  0
    3.8724    0.5110   -2.2313 H   0  0  0  0  0  0  0  0  0  0  0  0
    5.0562   -0.6393   -1.7640 H   0  0  0  0  0  0  0  0  0  0  0  0
    2.8092   -1.5017   -1.5939 S   0  0  0  0  0  0  0  0  0  0  0  0
    3.4620   -2.6455   -2.8354 C   0  0  0  0  0  0  0  0  0  0  0  0
    2.8410   -3.4225   -2.9229 H   0  0  0  0  0  0  0  0  0  0  0  0
    3.5354   -2.1710   -3.7100 H   0  0  0  0  0  0  0  0  0  0  0  0
    4.3628   -2.9630   -2.5449 H   0  0  0  0  0  0  0  0  0  0  0  0
  1  5  1  0
  5  8  1  0
  1  2  1  0
  1  3  1  0
  1  4  1  0
  5  6  1  0
  5  7  1  0
  8  9  1  0
  8 10  1  0
  8 11  1  0
 12 16  1  0
 16 17  1  0
 12 13  1  0
 12 14  1  0
 12 15  1  0
 17 18  1  0
 17 19  1  0
 17 20  1  0
M  CHG  1   8   1
M  END
>  <PDB_ID>  (287) 
pdb2hiv

>  <RESIDUE_NAME>  (287) 
LYS   MET

>  <FRAG_NAME>  (287) 
ETAM   MSM

>  <FRAG_ATOM_NUM>  (287) 
fragi: 11  fragj: 9

>  <atom.prop.CHAIN_ID>  (287) 
A A A A A A A A A A A Z Z Z Z Z Z Z Z Z

>  <atom.prop.IS_HEAVY_ATOM>  (287) 
1 0 0 0 1 0 0 1 0 0 0 1 0 0 0 1 1 0 0 0

>  <DIFUSE_FUNC_ATOM>  (287) 
n/a

>  <FINAL_SINGLE_POINT_ENERGY>  (287) 
0

>  <NONCOV_INTER_ENERGY_QM>  (287) 
0

>  <FF_Energy>  (287) 
1.69

>  <QM_Energy>  (287) 
-6.32

>  <source>  (287) 
ETAM_MSM

>  <Index>  (287) 
1635

$$$$
ETAM-pdb2him-E-LYS-308:MSM-pdb2him-E-MET-300
     RDKit          3D

 20 18  0  0  0  0  0  0  0  0999 V2000
    1.2320    0.8857    0.0000 C   0  0  0  0  0  0  0  0  0  0  0  0
    1.1970    1.4807    0.8030 H   0  0  0  0  0  0  0  0  0  0  0  0
    1.2234    1.4427   -0.8303 H   0  0  0  0  0  0  0  0  0  0  0  0
    2.1593    0.3135    0.0291 H   0  0  0  0  0  0  0  0  0  0  0  0
    0.0000    0.0000    0.0000 C   0  0  0  0  0  0  0  0  0  0  0  0
   -0.0024   -0.5628   -0.8163 H   0  0  0  0  0  0  0  0  0  0  0  0
   -0.0026   -0.5632    0.8165 H   0  0  0  0  0  0  0  0  0  0  0  0
   -1.2320    0.8642   -0.0000 N   0  0  0  0  0  4  0  0  0  0  0  0
   -1.4632    1.0968   -0.9410 H   0  0  0  0  0  0  0  0  0  0  0  0
   -1.9818    0.3593    0.4205 H   0  0  0  0  0  0  0  0  0  0  0  0
   -1.0452    1.6939    0.5209 H   0  0  0  0  0  0  0  0  0  0  0  0
   -0.8591    6.0086    0.6247 C   0  0  0  0  0  0  0  0  0  0  0  0
   -1.0086    5.9575    1.6255 H   0  0  0  0  0  0  0  0  0  0  0  0
   -1.7695    6.0903    0.1867 H   0  0  0  0  0  0  0  0  0  0  0  0
   -0.2641    6.8918    0.3920 H   0  0  0  0  0  0  0  0  0  0  0  0
   -0.0102    4.5130    0.0381 S   0  0  0  0  0  0  0  0  0  0  0  0
   -0.2420    4.6709   -1.7500 C   0  0  0  0  0  0  0  0  0  0  0  0
   -1.1012    5.1476   -1.9270 H   0  0  0  0  0  0  0  0  0  0  0  0
    0.5191    5.1911   -2.1331 H   0  0  0  0  0  0  0  0  0  0  0  0
   -0.2700    3.7600   -2.1572 H   0  0  0  0  0  0  0  0  0  0  0  0
  1  5  1  0
  5  8  1  0
  1  2  1  0
  1  3  1  0
  1  4  1  0
  5  6  1  0
  5  7  1  0
  8  9  1  0
  8 10  1  0
  8 11  1  0
 12 16  1  0
 16 17  1  0
 12 13  1  0
 12 14  1  0
 12 15  1  0
 17 18  1  0
 17 19  1  0
 17 20  1  0
M  CHG  1   8   1
M  END
>  <PDB_ID>  (288) 
pdb2him

>  <RESIDUE_NAME>  (288) 
LYS   MET

>  <FRAG_NAME>  (288) 
ETAM   MSM

>  <FRAG_ATOM_NUM>  (288) 
fragi: 11  fragj: 9

>  <atom.prop.CHAIN_ID>  (288) 
A A A A A A A A A A A Z Z Z Z Z Z Z Z Z

>  <atom.prop.IS_HEAVY_ATOM>  (288) 
1 0 0 0 1 0 0 1 0 0 0 1 0 0 0 1 1 0 0 0

>  <DIFUSE_FUNC_ATOM>  (288) 
n/a

>  <FINAL_SINGLE_POINT_ENERGY>  (288) 
0

>  <NONCOV_INTER_ENERGY_QM>  (288) 
0

>  <FF_Energy>  (288) 
-4.59

>  <QM_Energy>  (288) 
-11.35

>  <source>  (288) 
ETAM_MSM

>  <Index>  (288) 
1638

$$$$
ETAM-pdb2him-F-LYS-308:MSM-pdb2him-F-MET-300
     RDKit          3D

 20 18  0  0  0  0  0  0  0  0999 V2000
    1.2370    0.8792    0.0000 C   0  0  0  0  0  0  0  0  0  0  0  0
    1.2160    1.4584    0.8121 H   0  0  0  0  0  0  0  0  0  0  0  0
    1.2241    1.4459   -0.8209 H   0  0  0  0  0  0  0  0  0  0  0  0
    2.1561    0.2934    0.0094 H   0  0  0  0  0  0  0  0  0  0  0  0
    0.0000    0.0000    0.0000 C   0  0  0  0  0  0  0  0  0  0  0  0
    0.0060   -0.5742   -0.8163 H   0  0  0  0  0  0  0  0  0  0  0  0
    0.0053   -0.5738    0.8164 H   0  0  0  0  0  0  0  0  0  0  0  0
   -1.2370    0.8367   -0.0000 N   0  0  0  0  0  4  0  0  0  0  0  0
   -1.6832    0.7636   -0.8906 H   0  0  0  0  0  0  0  0  0  0  0  0
   -1.8550    0.5105    0.7143 H   0  0  0  0  0  0  0  0  0  0  0  0
   -0.9900    1.7880    0.1765 H   0  0  0  0  0  0  0  0  0  0  0  0
   -0.6454    6.0303    0.5547 C   0  0  0  0  0  0  0  0  0  0  0  0
   -0.7481    5.9975    1.5623 H   0  0  0  0  0  0  0  0  0  0  0  0
   -1.5723    6.1338    0.1592 H   0  0  0  0  0  0  0  0  0  0  0  0
   -0.0422    6.8973    0.2850 H   0  0  0  0  0  0  0  0  0  0  0  0
    0.1330    4.4954   -0.0524 S   0  0  0  0  0  0  0  0  0  0  0  0
   -0.1989    4.6403   -1.7885 C   0  0  0  0  0  0  0  0  0  0  0  0
    0.1952    5.4927   -2.1442 H   0  0  0  0  0  0  0  0  0  0  0  0
    0.2049    3.8653   -2.2823 H   0  0  0  0  0  0  0  0  0  0  0  0
   -1.1894    4.6478   -1.9504 H   0  0  0  0  0  0  0  0  0  0  0  0
  1  5  1  0
  5  8  1  0
  1  2  1  0
  1  3  1  0
  1  4  1  0
  5  6  1  0
  5  7  1  0
  8  9  1  0
  8 10  1  0
  8 11  1  0
 12 16  1  0
 16 17  1  0
 12 13  1  0
 12 14  1  0
 12 15  1  0
 17 18  1  0
 17 19  1  0
 17 20  1  0
M  CHG  1   8   1
M  END
>  <PDB_ID>  (289) 
pdb2him

>  <RESIDUE_NAME>  (289) 
LYS   MET

>  <FRAG_NAME>  (289) 
ETAM   MSM

>  <FRAG_ATOM_NUM>  (289) 
fragi: 11  fragj: 9

>  <atom.prop.CHAIN_ID>  (289) 
A A A A A A A A A A A Z Z Z Z Z Z Z Z Z

>  <atom.prop.IS_HEAVY_ATOM>  (289) 
1 0 0 0 1 0 0 1 0 0 0 1 0 0 0 1 1 0 0 0

>  <DIFUSE_FUNC_ATOM>  (289) 
n/a

>  <FINAL_SINGLE_POINT_ENERGY>  (289) 
0

>  <NONCOV_INTER_ENERGY_QM>  (289) 
0

>  <FF_Energy>  (289) 
-4.69

>  <QM_Energy>  (289) 
-11.87

>  <source>  (289) 
ETAM_MSM

>  <Index>  (289) 
1640

$$$$
ETAM-pdb2him-G-LYS-308:MSM-pdb2him-G-MET-300
     RDKit          3D

 20 18  0  0  0  0  0  0  0  0999 V2000
    1.2391    0.8822    0.0000 C   0  0  0  0  0  0  0  0  0  0  0  0
    1.2007    1.4836    0.7929 H   0  0  0  0  0  0  0  0  0  0  0  0
    1.2453    1.4199   -0.8382 H   0  0  0  0  0  0  0  0  0  0  0  0
    2.1563    0.2953    0.0489 H   0  0  0  0  0  0  0  0  0  0  0  0
    0.0000    0.0000    0.0000 C   0  0  0  0  0  0  0  0  0  0  0  0
    0.0041   -0.5711   -0.8165 H   0  0  0  0  0  0  0  0  0  0  0  0
    0.0039   -0.5705    0.8168 H   0  0  0  0  0  0  0  0  0  0  0  0
   -1.2391    0.8441    0.0000 N   0  0  0  0  0  4  0  0  0  0  0  0
   -1.9796    0.3361   -0.4343 H   0  0  0  0  0  0  0  0  0  0  0  0
   -1.4847    1.0632    0.9417 H   0  0  0  0  0  0  0  0  0  0  0  0
   -1.0615    1.6846   -0.5081 H   0  0  0  0  0  0  0  0  0  0  0  0
   -0.7325    6.0835    0.4833 C   0  0  0  0  0  0  0  0  0  0  0  0
   -0.8852    6.0491    1.4818 H   0  0  0  0  0  0  0  0  0  0  0  0
   -1.6350    6.1712    0.0369 H   0  0  0  0  0  0  0  0  0  0  0  0
   -0.1230    6.9540    0.2406 H   0  0  0  0  0  0  0  0  0  0  0  0
    0.1081    4.5751   -0.0796 S   0  0  0  0  0  0  0  0  0  0  0  0
   -0.0868    4.7271   -1.8610 C   0  0  0  0  0  0  0  0  0  0  0  0
    0.3503    3.9481   -2.3107 H   0  0  0  0  0  0  0  0  0  0  0  0
   -1.0602    4.7416   -2.0891 H   0  0  0  0  0  0  0  0  0  0  0  0
    0.3417    5.5756   -2.1711 H   0  0  0  0  0  0  0  0  0  0  0  0
  1  5  1  0
  5  8  1  0
  1  2  1  0
  1  3  1  0
  1  4  1  0
  5  6  1  0
  5  7  1  0
  8  9  1  0
  8 10  1  0
  8 11  1  0
 12 16  1  0
 16 17  1  0
 12 13  1  0
 12 14  1  0
 12 15  1  0
 17 18  1  0
 17 19  1  0
 17 20  1  0
M  CHG  1   8   1
M  END
>  <PDB_ID>  (290) 
pdb2him

>  <RESIDUE_NAME>  (290) 
LYS   MET

>  <FRAG_NAME>  (290) 
ETAM   MSM

>  <FRAG_ATOM_NUM>  (290) 
fragi: 11  fragj: 9

>  <atom.prop.CHAIN_ID>  (290) 
A A A A A A A A A A A Z Z Z Z Z Z Z Z Z

>  <atom.prop.IS_HEAVY_ATOM>  (290) 
1 0 0 0 1 0 0 1 0 0 0 1 0 0 0 1 1 0 0 0

>  <DIFUSE_FUNC_ATOM>  (290) 
n/a

>  <FINAL_SINGLE_POINT_ENERGY>  (290) 
0

>  <NONCOV_INTER_ENERGY_QM>  (290) 
0

>  <FF_Energy>  (290) 
-4.46

>  <QM_Energy>  (290) 
-10.38

>  <source>  (290) 
ETAM_MSM

>  <Index>  (290) 
1642

$$$$
ETAM-pdb2him-H-LYS-308:MSM-pdb2him-H-MET-300
     RDKit          3D

 20 18  0  0  0  0  0  0  0  0999 V2000
    1.2462    0.8628    0.0000 C   0  0  0  0  0  0  0  0  0  0  0  0
    1.2450    1.4267    0.8235 H   0  0  0  0  0  0  0  0  0  0  0  0
    1.2327    1.4457   -0.8100 H   0  0  0  0  0  0  0  0  0  0  0  0
    2.1588    0.2669   -0.0135 H   0  0  0  0  0  0  0  0  0  0  0  0
    0.0000    0.0000    0.0000 C   0  0  0  0  0  0  0  0  0  0  0  0
    0.0051   -0.5835   -0.8165 H   0  0  0  0  0  0  0  0  0  0  0  0
    0.0047   -0.5840    0.8169 H   0  0  0  0  0  0  0  0  0  0  0  0
   -1.2462    0.8236   -0.0000 N   0  0  0  0  0  4  0  0  0  0  0  0
   -1.0632    1.6970    0.4481 H   0  0  0  0  0  0  0  0  0  0  0  0
   -1.5356    0.9821   -0.9422 H   0  0  0  0  0  0  0  0  0  0  0  0
   -1.9633    0.3353    0.4953 H   0  0  0  0  0  0  0  0  0  0  0  0
   -0.7325    6.0210    0.6330 C   0  0  0  0  0  0  0  0  0  0  0  0
   -0.8906    5.9581    1.6323 H   0  0  0  0  0  0  0  0  0  0  0  0
   -1.6375    6.1405    0.1919 H   0  0  0  0  0  0  0  0  0  0  0  0
   -0.1123    6.8924    0.4230 H   0  0  0  0  0  0  0  0  0  0  0  0
    0.0747    4.5148    0.0227 S   0  0  0  0  0  0  0  0  0  0  0  0
   -0.2564    4.6462   -1.7488 C   0  0  0  0  0  0  0  0  0  0  0  0
   -0.0284    3.7801   -2.1893 H   0  0  0  0  0  0  0  0  0  0  0  0
   -1.2237    4.8516   -1.8869 H   0  0  0  0  0  0  0  0  0  0  0  0
    0.3030    5.3788   -2.1334 H   0  0  0  0  0  0  0  0  0  0  0  0
  1  5  1  0
  5  8  1  0
  1  2  1  0
  1  3  1  0
  1  4  1  0
  5  6  1  0
  5  7  1  0
  8  9  1  0
  8 10  1  0
  8 11  1  0
 12 16  1  0
 16 17  1  0
 12 13  1  0
 12 14  1  0
 12 15  1  0
 17 18  1  0
 17 19  1  0
 17 20  1  0
M  CHG  1   8   1
M  END
>  <PDB_ID>  (291) 
pdb2him

>  <RESIDUE_NAME>  (291) 
LYS   MET

>  <FRAG_NAME>  (291) 
ETAM   MSM

>  <FRAG_ATOM_NUM>  (291) 
fragi: 11  fragj: 9

>  <atom.prop.CHAIN_ID>  (291) 
A A A A A A A A A A A Z Z Z Z Z Z Z Z Z

>  <atom.prop.IS_HEAVY_ATOM>  (291) 
1 0 0 0 1 0 0 1 0 0 0 1 0 0 0 1 1 0 0 0

>  <DIFUSE_FUNC_ATOM>  (291) 
n/a

>  <FINAL_SINGLE_POINT_ENERGY>  (291) 
0

>  <NONCOV_INTER_ENERGY_QM>  (291) 
0

>  <FF_Energy>  (291) 
-4.49

>  <QM_Energy>  (291) 
-11.15

>  <source>  (291) 
ETAM_MSM

>  <Index>  (291) 
1644

$$$$
ETAM-pdb2hjr-J-LYS-290:MSM-pdb2hjr-L-MET-13
     RDKit          3D

 20 18  0  0  0  0  0  0  0  0999 V2000
    1.2434    0.8831    0.0000 C   0  0  0  0  0  0  0  0  0  0  0  0
    1.4364    1.1532    0.9340 H   0  0  0  0  0  0  0  0  0  0  0  0
    1.0660    1.6756   -0.5685 H   0  0  0  0  0  0  0  0  0  0  0  0
    2.0997    0.3398   -0.3996 H   0  0  0  0  0  0  0  0  0  0  0  0
    0.0000    0.0000    0.0000 C   0  0  0  0  0  0  0  0  0  0  0  0
    0.0104   -0.5745   -0.8163 H   0  0  0  0  0  0  0  0  0  0  0  0
    0.0101   -0.5748    0.8162 H   0  0  0  0  0  0  0  0  0  0  0  0
   -1.2434    0.8310   -0.0000 N   0  0  0  0  0  4  0  0  0  0  0  0
   -1.0071    1.7744   -0.2265 H   0  0  0  0  0  0  0  0  0  0  0  0
   -1.8801    0.4699   -0.6794 H   0  0  0  0  0  0  0  0  0  0  0  0
   -1.6614    0.7956    0.9066 H   0  0  0  0  0  0  0  0  0  0  0  0
   -2.6074    4.3587    1.4123 C   0  0  0  0  0  0  0  0  0  0  0  0
   -3.3744    5.0088    1.5580 H   0  0  0  0  0  0  0  0  0  0  0  0
   -2.4870    4.2629    0.4083 H   0  0  0  0  0  0  0  0  0  0  0  0
   -1.6996    4.7909    1.8333 H   0  0  0  0  0  0  0  0  0  0  0  0
   -2.9771    2.7524    2.1694 S   0  0  0  0  0  0  0  0  0  0  0  0
   -3.8628    3.3347    3.6309 C   0  0  0  0  0  0  0  0  0  0  0  0
   -4.8348    3.4145    3.4164 H   0  0  0  0  0  0  0  0  0  0  0  0
   -3.7347    2.6816    4.3754 H   0  0  0  0  0  0  0  0  0  0  0  0
   -3.5029    4.2269    3.8993 H   0  0  0  0  0  0  0  0  0  0  0  0
  1  5  1  0
  5  8  1  0
  1  2  1  0
  1  3  1  0
  1  4  1  0
  5  6  1  0
  5  7  1  0
  8  9  1  0
  8 10  1  0
  8 11  1  0
 12 16  1  0
 16 17  1  0
 12 13  1  0
 12 14  1  0
 12 15  1  0
 17 18  1  0
 17 19  1  0
 17 20  1  0
M  CHG  1   8   1
M  END
>  <PDB_ID>  (292) 
pdb2hjr

>  <RESIDUE_NAME>  (292) 
LYS   MET

>  <FRAG_NAME>  (292) 
ETAM   MSM

>  <FRAG_ATOM_NUM>  (292) 
fragi: 11  fragj: 9

>  <atom.prop.CHAIN_ID>  (292) 
A A A A A A A A A A A Z Z Z Z Z Z Z Z Z

>  <atom.prop.IS_HEAVY_ATOM>  (292) 
1 0 0 0 1 0 0 1 0 0 0 1 0 0 0 1 1 0 0 0

>  <DIFUSE_FUNC_ATOM>  (292) 
n/a

>  <FINAL_SINGLE_POINT_ENERGY>  (292) 
0

>  <NONCOV_INTER_ENERGY_QM>  (292) 
0

>  <FF_Energy>  (292) 
-5.14

>  <QM_Energy>  (292) 
-11.75

>  <source>  (292) 
ETAM_MSM

>  <Index>  (292) 
1655

$$$$
ETAM-pdb1gmu-D-LYS-87:MSM-pdb1gmu-D-MET-84
     RDKit          3D

 20 18  0  0  0  0  0  0  0  0999 V2000
    1.2470    0.8665    0.0000 C   0  0  0  0  0  0  0  0  0  0  0  0
    1.2663    1.3982    0.8408 H   0  0  0  0  0  0  0  0  0  0  0  0
    1.2161    1.4699   -0.7903 H   0  0  0  0  0  0  0  0  0  0  0  0
    2.1540    0.2644   -0.0537 H   0  0  0  0  0  0  0  0  0  0  0  0
    0.0000    0.0000    0.0000 C   0  0  0  0  0  0  0  0  0  0  0  0
    0.0087   -0.5849   -0.8164 H   0  0  0  0  0  0  0  0  0  0  0  0
    0.0084   -0.5848    0.8161 H   0  0  0  0  0  0  0  0  0  0  0  0
   -1.2470    0.8173    0.0000 N   0  0  0  0  0  4  0  0  0  0  0  0
   -1.1574    1.5562   -0.6667 H   0  0  0  0  0  0  0  0  0  0  0  0
   -2.0226    0.2364   -0.2445 H   0  0  0  0  0  0  0  0  0  0  0  0
   -1.3898    1.2026    0.9110 H   0  0  0  0  0  0  0  0  0  0  0  0
   -2.7851   -4.0624    0.1994 C   0  0  0  0  0  0  0  0  0  0  0  0
   -2.9739   -3.9886   -0.7882 H   0  0  0  0  0  0  0  0  0  0  0  0
   -3.5823   -4.4949    0.6400 H   0  0  0  0  0  0  0  0  0  0  0  0
   -1.8825   -4.6474    0.3758 H   0  0  0  0  0  0  0  0  0  0  0  0
   -2.6285   -2.2664    0.9018 S   0  0  0  0  0  0  0  0  0  0  0  0
   -1.9868   -2.6996    2.6685 C   0  0  0  0  0  0  0  0  0  0  0  0
   -2.2882   -1.9691    3.2482 H   0  0  0  0  0  0  0  0  0  0  0  0
   -2.3956   -3.5606    2.8975 H   0  0  0  0  0  0  0  0  0  0  0  0
   -1.0111   -2.7490    2.5931 H   0  0  0  0  0  0  0  0  0  0  0  0
  1  5  1  0
  5  8  1  0
  1  2  1  0
  1  3  1  0
  1  4  1  0
  5  6  1  0
  5  7  1  0
  8  9  1  0
  8 10  1  0
  8 11  1  0
 12 16  1  0
 16 17  1  0
 12 13  1  0
 12 14  1  0
 12 15  1  0
 17 18  1  0
 17 19  1  0
 17 20  1  0
M  CHG  1   8   1
M  END
>  <PDB_ID>  (293) 
pdb1gmu

>  <RESIDUE_NAME>  (293) 
LYS   MET

>  <FRAG_NAME>  (293) 
ETAM   MSM

>  <FRAG_ATOM_NUM>  (293) 
fragi: 11  fragj: 9

>  <atom.prop.CHAIN_ID>  (293) 
A A A A A A A A A A A Z Z Z Z Z Z Z Z Z

>  <atom.prop.IS_HEAVY_ATOM>  (293) 
1 0 0 0 1 0 0 1 0 0 0 1 0 0 0 1 1 0 0 0

>  <DIFUSE_FUNC_ATOM>  (293) 
n/a

>  <FINAL_SINGLE_POINT_ENERGY>  (293) 
0

>  <NONCOV_INTER_ENERGY_QM>  (293) 
0

>  <FF_Energy>  (293) 
-5.28

>  <QM_Energy>  (293) 
-12.65

>  <source>  (293) 
ETAM_MSM

>  <Index>  (293) 
1656

$$$$
ETAM-pdb2hk2-A-LYS-21:MSM-pdb2hk2-A-MET-196
     RDKit          3D

 20 18  0  0  0  0  0  0  0  0999 V2000
    1.3202    0.8587   -0.0000 C   0  0  0  0  0  0  0  0  0  0  0  0
    2.0903    0.2220   -0.0438 H   0  0  0  0  0  0  0  0  0  0  0  0
    1.3493    1.3595    0.8653 H   0  0  0  0  0  0  0  0  0  0  0  0
    1.3993    1.5678   -0.8240 H   0  0  0  0  0  0  0  0  0  0  0  0
    0.0000    0.0000    0.0000 C   0  0  0  0  0  0  0  0  0  0  0  0
    0.0305   -0.6102   -0.8162 H   0  0  0  0  0  0  0  0  0  0  0  0
    0.0312   -0.6102    0.8165 H   0  0  0  0  0  0  0  0  0  0  0  0
   -1.3202    0.7479    0.0000 N   0  0  0  0  0  4  0  0  0  0  0  0
   -1.6388    0.8281   -0.9391 H   0  0  0  0  0  0  0  0  0  0  0  0
   -1.9754    0.2345    0.5454 H   0  0  0  0  0  0  0  0  0  0  0  0
   -1.1737    1.6491    0.3944 H   0  0  0  0  0  0  0  0  0  0  0  0
   -3.0255    0.5367   -3.5611 C   0  0  0  0  0  0  0  0  0  0  0  0
   -3.5465    0.0477   -2.8358 H   0  0  0  0  0  0  0  0  0  0  0  0
   -2.2142   -0.0390   -3.7764 H   0  0  0  0  0  0  0  0  0  0  0  0
   -3.6492    0.6213   -4.4510 H   0  0  0  0  0  0  0  0  0  0  0  0
   -2.4827    2.1811   -2.9448 S   0  0  0  0  0  0  0  0  0  0  0  0
   -4.0965    2.8826   -2.4468 C   0  0  0  0  0  0  0  0  0  0  0  0
   -4.7183    2.8292   -3.2217 H   0  0  0  0  0  0  0  0  0  0  0  0
   -4.4502    2.3532   -1.6824 H   0  0  0  0  0  0  0  0  0  0  0  0
   -3.9602    3.8311   -2.1778 H   0  0  0  0  0  0  0  0  0  0  0  0
  1  5  1  0
  5  8  1  0
  1  2  1  0
  1  3  1  0
  1  4  1  0
  5  6  1  0
  5  7  1  0
  8  9  1  0
  8 10  1  0
  8 11  1  0
 12 16  1  0
 16 17  1  0
 12 13  1  0
 12 14  1  0
 12 15  1  0
 17 18  1  0
 17 19  1  0
 17 20  1  0
M  CHG  1   8   1
M  END
>  <PDB_ID>  (294) 
pdb2hk2

>  <RESIDUE_NAME>  (294) 
LYS   MET

>  <FRAG_NAME>  (294) 
ETAM   MSM

>  <FRAG_ATOM_NUM>  (294) 
fragi: 11  fragj: 9

>  <atom.prop.CHAIN_ID>  (294) 
A A A A A A A A A A A Z Z Z Z Z Z Z Z Z

>  <atom.prop.IS_HEAVY_ATOM>  (294) 
1 0 0 0 1 0 0 1 0 0 0 1 0 0 0 1 1 0 0 0

>  <DIFUSE_FUNC_ATOM>  (294) 
n/a

>  <FINAL_SINGLE_POINT_ENERGY>  (294) 
0

>  <NONCOV_INTER_ENERGY_QM>  (294) 
0

>  <FF_Energy>  (294) 
-4.54

>  <QM_Energy>  (294) 
-13.41

>  <source>  (294) 
ETAM_MSM

>  <Index>  (294) 
1657

$$$$
ETAM-pdb1gg1-D-LYS-186:MSM-pdb1gg1-D-MET-300
     RDKit          3D

 20 18  0  0  0  0  0  0  0  0999 V2000
    1.2456    0.8718    0.0000 C   0  0  0  0  0  0  0  0  0  0  0  0
    1.2918    1.3520    0.8722 H   0  0  0  0  0  0  0  0  0  0  0  0
    1.1699    1.5269   -0.7469 H   0  0  0  0  0  0  0  0  0  0  0  0
    2.1498    0.2775   -0.1316 H   0  0  0  0  0  0  0  0  0  0  0  0
    0.0000    0.0000    0.0000 C   0  0  0  0  0  0  0  0  0  0  0  0
    0.0081   -0.5800   -0.8162 H   0  0  0  0  0  0  0  0  0  0  0  0
    0.0076   -0.5802    0.8165 H   0  0  0  0  0  0  0  0  0  0  0  0
   -1.2456    0.8244    0.0000 N   0  0  0  0  0  4  0  0  0  0  0  0
   -1.0397    1.7309    0.3666 H   0  0  0  0  0  0  0  0  0  0  0  0
   -1.5845    0.9078   -0.9353 H   0  0  0  0  0  0  0  0  0  0  0  0
   -1.9352    0.3793    0.5694 H   0  0  0  0  0  0  0  0  0  0  0  0
   -3.7610   -3.8051   -0.0692 C   0  0  0  0  0  0  0  0  0  0  0  0
   -4.5973   -3.2952   -0.3164 H   0  0  0  0  0  0  0  0  0  0  0  0
   -3.9923   -4.4247    0.6953 H   0  0  0  0  0  0  0  0  0  0  0  0
   -3.4540   -4.4065   -0.9249 H   0  0  0  0  0  0  0  0  0  0  0  0
   -2.4310   -2.6846    0.3854 S   0  0  0  0  0  0  0  0  0  0  0  0
   -1.4519   -3.8275    1.4516 C   0  0  0  0  0  0  0  0  0  0  0  0
   -2.0414   -4.1510    2.1817 H   0  0  0  0  0  0  0  0  0  0  0  0
   -1.1401   -4.5839    0.8898 H   0  0  0  0  0  0  0  0  0  0  0  0
   -0.6814   -3.3227    1.8198 H   0  0  0  0  0  0  0  0  0  0  0  0
  1  5  1  0
  5  8  1  0
  1  2  1  0
  1  3  1  0
  1  4  1  0
  5  6  1  0
  5  7  1  0
  8  9  1  0
  8 10  1  0
  8 11  1  0
 12 16  1  0
 16 17  1  0
 12 13  1  0
 12 14  1  0
 12 15  1  0
 17 18  1  0
 17 19  1  0
 17 20  1  0
M  CHG  1   8   1
M  END
>  <PDB_ID>  (295) 
pdb1gg1

>  <RESIDUE_NAME>  (295) 
LYS   MET

>  <FRAG_NAME>  (295) 
ETAM   MSM

>  <FRAG_ATOM_NUM>  (295) 
fragi: 11  fragj: 9

>  <atom.prop.CHAIN_ID>  (295) 
A A A A A A A A A A A Z Z Z Z Z Z Z Z Z

>  <atom.prop.IS_HEAVY_ATOM>  (295) 
1 0 0 0 1 0 0 1 0 0 0 1 0 0 0 1 1 0 0 0

>  <DIFUSE_FUNC_ATOM>  (295) 
n/a

>  <FINAL_SINGLE_POINT_ENERGY>  (295) 
0

>  <NONCOV_INTER_ENERGY_QM>  (295) 
0

>  <FF_Energy>  (295) 
-5.28

>  <QM_Energy>  (295) 
-11.57

>  <source>  (295) 
ETAM_MSM

>  <Index>  (295) 
1658

$$$$
ETAM-pdb1gs5-A-LYS-217:MSM-pdb1gs5-A-MET-214
     RDKit          3D

 20 18  0  0  0  0  0  0  0  0999 V2000
    1.2179    0.9096    0.0000 C   0  0  0  0  0  0  0  0  0  0  0  0
    2.0327    0.3456   -0.1118 H   0  0  0  0  0  0  0  0  0  0  0  0
    1.2522    1.3904    0.8727 H   0  0  0  0  0  0  0  0  0  0  0  0
    1.1761    1.6394   -0.8086 H   0  0  0  0  0  0  0  0  0  0  0  0
    0.0000    0.0000    0.0000 C   0  0  0  0  0  0  0  0  0  0  0  0
    0.0051   -0.5528   -0.8162 H   0  0  0  0  0  0  0  0  0  0  0  0
    0.0052   -0.5536    0.8160 H   0  0  0  0  0  0  0  0  0  0  0  0
   -1.2179    0.8693    0.0000 N   0  0  0  0  0  4  0  0  0  0  0  0
   -1.1595    1.5157   -0.7587 H   0  0  0  0  0  0  0  0  0  0  0  0
   -2.0295    0.2969   -0.1066 H   0  0  0  0  0  0  0  0  0  0  0  0
   -1.2656    1.3657    0.8644 H   0  0  0  0  0  0  0  0  0  0  0  0
    3.6517   -2.9503   -2.9261 C   0  0  0  0  0  0  0  0  0  0  0  0
    4.2806   -3.6964   -2.6741 H   0  0  0  0  0  0  0  0  0  0  0  0
    4.1895   -2.2215   -3.3671 H   0  0  0  0  0  0  0  0  0  0  0  0
    2.9275   -3.3335   -3.6450 H   0  0  0  0  0  0  0  0  0  0  0  0
    2.7857   -2.3111   -1.4550 S   0  0  0  0  0  0  0  0  0  0  0  0
    3.6404   -0.7566   -1.1298 C   0  0  0  0  0  0  0  0  0  0  0  0
    3.1509   -0.0112   -1.5796 H   0  0  0  0  0  0  0  0  0  0  0  0
    3.6667   -0.5943   -0.1443 H   0  0  0  0  0  0  0  0  0  0  0  0
    4.5722   -0.8113   -1.4864 H   0  0  0  0  0  0  0  0  0  0  0  0
  1  5  1  0
  5  8  1  0
  1  2  1  0
  1  3  1  0
  1  4  1  0
  5  6  1  0
  5  7  1  0
  8  9  1  0
  8 10  1  0
  8 11  1  0
 12 16  1  0
 16 17  1  0
 12 13  1  0
 12 14  1  0
 12 15  1  0
 17 18  1  0
 17 19  1  0
 17 20  1  0
M  CHG  1   8   1
M  END
>  <PDB_ID>  (296) 
pdb1gs5

>  <RESIDUE_NAME>  (296) 
LYS   MET

>  <FRAG_NAME>  (296) 
ETAM   MSM

>  <FRAG_ATOM_NUM>  (296) 
fragi: 11  fragj: 9

>  <atom.prop.CHAIN_ID>  (296) 
A A A A A A A A A A A Z Z Z Z Z Z Z Z Z

>  <atom.prop.IS_HEAVY_ATOM>  (296) 
1 0 0 0 1 0 0 1 0 0 0 1 0 0 0 1 1 0 0 0

>  <DIFUSE_FUNC_ATOM>  (296) 
n/a

>  <FINAL_SINGLE_POINT_ENERGY>  (296) 
0

>  <NONCOV_INTER_ENERGY_QM>  (296) 
0

>  <FF_Energy>  (296) 
7.59

>  <QM_Energy>  (296) 
-1.75

>  <source>  (296) 
ETAM_MSM

>  <Index>  (296) 
1660

$$$$
ETAM-pdb1gsd-D-LYS-87:MSM-pdb1gsd-C-MET-63
     RDKit          3D

 20 18  0  0  0  0  0  0  0  0999 V2000
    1.2794    0.8529   -0.0000 C   0  0  0  0  0  0  0  0  0  0  0  0
    1.1488    1.6008   -0.6492 H   0  0  0  0  0  0  0  0  0  0  0  0
    2.0337    0.2730   -0.3036 H   0  0  0  0  0  0  0  0  0  0  0  0
    1.5095    1.2632    0.9833 H   0  0  0  0  0  0  0  0  0  0  0  0
    0.0000    0.0000    0.0000 C   0  0  0  0  0  0  0  0  0  0  0  0
    0.0125   -0.5973   -0.8161 H   0  0  0  0  0  0  0  0  0  0  0  0
    0.0124   -0.5977    0.8164 H   0  0  0  0  0  0  0  0  0  0  0  0
   -1.2794    0.7928    0.0000 N   0  0  0  0  0  4  0  0  0  0  0  0
   -1.0860    1.7187    0.3142 H   0  0  0  0  0  0  0  0  0  0  0  0
   -1.6447    0.8164   -0.9269 H   0  0  0  0  0  0  0  0  0  0  0  0
   -1.9315    0.3534    0.6130 H   0  0  0  0  0  0  0  0  0  0  0  0
    0.7222    1.3220   -4.1344 C   0  0  0  0  0  0  0  0  0  0  0  0
    0.3207    2.2467   -4.0862 H   0  0  0  0  0  0  0  0  0  0  0  0
    0.0726    0.6776   -3.7086 H   0  0  0  0  0  0  0  0  0  0  0  0
    0.8712    1.0477   -5.1788 H   0  0  0  0  0  0  0  0  0  0  0  0
    2.3055    1.2684   -3.3151 S   0  0  0  0  0  0  0  0  0  0  0  0
    2.3610   -0.3772   -2.7301 C   0  0  0  0  0  0  0  0  0  0  0  0
    1.7803   -0.9779   -3.2951 H   0  0  0  0  0  0  0  0  0  0  0  0
    3.3031   -0.7352   -2.7580 H   0  0  0  0  0  0  0  0  0  0  0  0
    2.0332   -0.4299   -1.7778 H   0  0  0  0  0  0  0  0  0  0  0  0
  1  5  1  0
  5  8  1  0
  1  2  1  0
  1  3  1  0
  1  4  1  0
  5  6  1  0
  5  7  1  0
  8  9  1  0
  8 10  1  0
  8 11  1  0
 12 16  1  0
 16 17  1  0
 12 13  1  0
 12 14  1  0
 12 15  1  0
 17 18  1  0
 17 19  1  0
 17 20  1  0
M  CHG  1   8   1
M  END
>  <PDB_ID>  (297) 
pdb1gsd

>  <RESIDUE_NAME>  (297) 
LYS   MET

>  <FRAG_NAME>  (297) 
ETAM   MSM

>  <FRAG_ATOM_NUM>  (297) 
fragi: 11  fragj: 9

>  <atom.prop.CHAIN_ID>  (297) 
A A A A A A A A A A A Z Z Z Z Z Z Z Z Z

>  <atom.prop.IS_HEAVY_ATOM>  (297) 
1 0 0 0 1 0 0 1 0 0 0 1 0 0 0 1 1 0 0 0

>  <DIFUSE_FUNC_ATOM>  (297) 
n/a

>  <FINAL_SINGLE_POINT_ENERGY>  (297) 
0

>  <NONCOV_INTER_ENERGY_QM>  (297) 
0

>  <FF_Energy>  (297) 
12.56

>  <QM_Energy>  (297) 
1.29

>  <source>  (297) 
ETAM_MSM

>  <Index>  (297) 
1669

$$$$
ETAM-pdb1gsu-B-LYS-204:MSM-pdb1gsu-B-MET-168
     RDKit          3D

 20 18  0  0  0  0  0  0  0  0999 V2000
    1.2564    0.8578   -0.0000 C   0  0  0  0  0  0  0  0  0  0  0  0
    2.0496    0.2613   -0.0756 H   0  0  0  0  0  0  0  0  0  0  0  0
    1.2911    1.3714    0.8523 H   0  0  0  0  0  0  0  0  0  0  0  0
    1.2664    1.5602   -0.8335 H   0  0  0  0  0  0  0  0  0  0  0  0
    0.0000    0.0000    0.0000 C   0  0  0  0  0  0  0  0  0  0  0  0
    0.0088   -0.5906   -0.8159 H   0  0  0  0  0  0  0  0  0  0  0  0
    0.0086   -0.5908    0.8160 H   0  0  0  0  0  0  0  0  0  0  0  0
   -1.2564    0.8083    0.0000 N   0  0  0  0  0  4  0  0  0  0  0  0
   -1.5378    0.9781   -0.9427 H   0  0  0  0  0  0  0  0  0  0  0  0
   -1.9720    0.3036    0.4798 H   0  0  0  0  0  0  0  0  0  0  0  0
   -1.0884    1.6764    0.4631 H   0  0  0  0  0  0  0  0  0  0  0  0
    2.1501    3.4012    3.7845 C   0  0  0  0  0  0  0  0  0  0  0  0
    3.1581    3.2809    3.5963 H   0  0  0  0  0  0  0  0  0  0  0  0
    1.9054    2.6118    4.4024 H   0  0  0  0  0  0  0  0  0  0  0  0
    2.0170    4.3264    4.3452 H   0  0  0  0  0  0  0  0  0  0  0  0
    1.2025    3.3237    2.2482 S   0  0  0  0  0  0  0  0  0  0  0  0
    1.9072    4.6913    1.3087 C   0  0  0  0  0  0  0  0  0  0  0  0
    2.7785    4.4046    0.9121 H   0  0  0  0  0  0  0  0  0  0  0  0
    1.2750    4.9515    0.5799 H   0  0  0  0  0  0  0  0  0  0  0  0
    2.0546    5.4685    1.9181 H   0  0  0  0  0  0  0  0  0  0  0  0
  1  5  1  0
  5  8  1  0
  1  2  1  0
  1  3  1  0
  1  4  1  0
  5  6  1  0
  5  7  1  0
  8  9  1  0
  8 10  1  0
  8 11  1  0
 12 16  1  0
 16 17  1  0
 12 13  1  0
 12 14  1  0
 12 15  1  0
 17 18  1  0
 17 19  1  0
 17 20  1  0
M  CHG  1   8   1
M  END
>  <PDB_ID>  (298) 
pdb1gsu

>  <RESIDUE_NAME>  (298) 
LYS   MET

>  <FRAG_NAME>  (298) 
ETAM   MSM

>  <FRAG_ATOM_NUM>  (298) 
fragi: 11  fragj: 9

>  <atom.prop.CHAIN_ID>  (298) 
A A A A A A A A A A A Z Z Z Z Z Z Z Z Z

>  <atom.prop.IS_HEAVY_ATOM>  (298) 
1 0 0 0 1 0 0 1 0 0 0 1 0 0 0 1 1 0 0 0

>  <DIFUSE_FUNC_ATOM>  (298) 
n/a

>  <FINAL_SINGLE_POINT_ENERGY>  (298) 
0

>  <NONCOV_INTER_ENERGY_QM>  (298) 
0

>  <FF_Energy>  (298) 
-0.19

>  <QM_Energy>  (298) 
-6.76

>  <source>  (298) 
ETAM_MSM

>  <Index>  (298) 
1675

$$$$
ETAM-pdb1fyz-B-LYS-65:MSM-pdb1fyz-D-MET-192
     RDKit          3D

 20 18  0  0  0  0  0  0  0  0999 V2000
    1.2562    0.8669   -0.0000 C   0  0  0  0  0  0  0  0  0  0  0  0
    1.2138    1.4767   -0.7838 H   0  0  0  0  0  0  0  0  0  0  0  0
    2.0464    0.2685   -0.0671 H   0  0  0  0  0  0  0  0  0  0  0  0
    1.3244    1.4568    0.9140 H   0  0  0  0  0  0  0  0  0  0  0  0
    0.0000    0.0000    0.0000 C   0  0  0  0  0  0  0  0  0  0  0  0
    0.0190   -0.5930   -0.8167 H   0  0  0  0  0  0  0  0  0  0  0  0
    0.0183   -0.5932    0.8167 H   0  0  0  0  0  0  0  0  0  0  0  0
   -1.2562    0.7921   -0.0000 N   0  0  0  0  0  4  0  0  0  0  0  0
   -1.6701    0.7594   -0.9099 H   0  0  0  0  0  0  0  0  0  0  0  0
   -1.8921    0.4086    0.6705 H   0  0  0  0  0  0  0  0  0  0  0  0
   -1.0520    1.7413    0.2403 H   0  0  0  0  0  0  0  0  0  0  0  0
   -1.9368    2.9594   -2.7344 C   0  0  0  0  0  0  0  0  0  0  0  0
   -1.9707    3.6182   -1.9442 H   0  0  0  0  0  0  0  0  0  0  0  0
   -2.5278    2.1681   -2.4449 H   0  0  0  0  0  0  0  0  0  0  0  0
   -2.4011    3.4367   -3.5973 H   0  0  0  0  0  0  0  0  0  0  0  0
   -0.2347    2.4067   -3.0300 S   0  0  0  0  0  0  0  0  0  0  0  0
    0.6939    3.8498   -2.5090 C   0  0  0  0  0  0  0  0  0  0  0  0
    0.4668    4.0688   -1.5590 H   0  0  0  0  0  0  0  0  0  0  0  0
    1.6737    3.6613   -2.5821 H   0  0  0  0  0  0  0  0  0  0  0  0
    0.4609    4.6268   -3.0940 H   0  0  0  0  0  0  0  0  0  0  0  0
  1  5  1  0
  5  8  1  0
  1  2  1  0
  1  3  1  0
  1  4  1  0
  5  6  1  0
  5  7  1  0
  8  9  1  0
  8 10  1  0
  8 11  1  0
 12 16  1  0
 16 17  1  0
 12 13  1  0
 12 14  1  0
 12 15  1  0
 17 18  1  0
 17 19  1  0
 17 20  1  0
M  CHG  1   8   1
M  END
>  <PDB_ID>  (299) 
pdb1fyz

>  <RESIDUE_NAME>  (299) 
LYS   MET

>  <FRAG_NAME>  (299) 
ETAM   MSM

>  <FRAG_ATOM_NUM>  (299) 
fragi: 11  fragj: 9

>  <atom.prop.CHAIN_ID>  (299) 
A A A A A A A A A A A Z Z Z Z Z Z Z Z Z

>  <atom.prop.IS_HEAVY_ATOM>  (299) 
1 0 0 0 1 0 0 1 0 0 0 1 0 0 0 1 1 0 0 0

>  <DIFUSE_FUNC_ATOM>  (299) 
n/a

>  <FINAL_SINGLE_POINT_ENERGY>  (299) 
0

>  <NONCOV_INTER_ENERGY_QM>  (299) 
0

>  <FF_Energy>  (299) 
-3.55

>  <QM_Energy>  (299) 
-9.36

>  <source>  (299) 
ETAM_MSM

>  <Index>  (299) 
1686

$$$$
ETAM-pdb2hmt-A-LYS-131:MSM-pdb2hmt-B-MET-128
     RDKit          3D

 20 18  0  0  0  0  0  0  0  0999 V2000
    1.2501    0.8705   -0.0000 C   0  0  0  0  0  0  0  0  0  0  0  0
    2.0469    0.2772    0.0679 H   0  0  0  0  0  0  0  0  0  0  0  0
    1.2088    1.4806    0.7858 H   0  0  0  0  0  0  0  0  0  0  0  0
    1.3280    1.4660   -0.9096 H   0  0  0  0  0  0  0  0  0  0  0  0
    0.0000    0.0000    0.0000 C   0  0  0  0  0  0  0  0  0  0  0  0
    0.0172   -0.5894   -0.8165 H   0  0  0  0  0  0  0  0  0  0  0  0
    0.0168   -0.5888    0.8166 H   0  0  0  0  0  0  0  0  0  0  0  0
   -1.2501    0.8003   -0.0000 N   0  0  0  0  0  4  0  0  0  0  0  0
   -1.1081    1.6408    0.5227 H   0  0  0  0  0  0  0  0  0  0  0  0
   -1.4982    1.0305   -0.9411 H   0  0  0  0  0  0  0  0  0  0  0  0
   -1.9870    0.2686    0.4183 H   0  0  0  0  0  0  0  0  0  0  0  0
    3.3498   -4.4983   -1.2430 C   0  0  0  0  0  0  0  0  0  0  0  0
    4.2023   -3.9439   -1.3335 H   0  0  0  0  0  0  0  0  0  0  0  0
    3.2421   -5.0007   -2.1259 H   0  0  0  0  0  0  0  0  0  0  0  0
    3.4848   -5.2219   -0.4390 H   0  0  0  0  0  0  0  0  0  0  0  0
    1.9199   -3.4173   -0.9507 S   0  0  0  0  0  0  0  0  0  0  0  0
    2.5580   -1.8684   -1.4439 C   0  0  0  0  0  0  0  0  0  0  0  0
    2.5052   -1.7619   -2.4459 H   0  0  0  0  0  0  0  0  0  0  0  0
    2.0375   -1.1151   -1.0209 H   0  0  0  0  0  0  0  0  0  0  0  0
    3.5240   -1.7750   -1.1691 H   0  0  0  0  0  0  0  0  0  0  0  0
  1  5  1  0
  5  8  1  0
  1  2  1  0
  1  3  1  0
  1  4  1  0
  5  6  1  0
  5  7  1  0
  8  9  1  0
  8 10  1  0
  8 11  1  0
 12 16  1  0
 16 17  1  0
 12 13  1  0
 12 14  1  0
 12 15  1  0
 17 18  1  0
 17 19  1  0
 17 20  1  0
M  CHG  1   8   1
M  END
>  <PDB_ID>  (300) 
pdb2hmt

>  <RESIDUE_NAME>  (300) 
LYS   MET

>  <FRAG_NAME>  (300) 
ETAM   MSM

>  <FRAG_ATOM_NUM>  (300) 
fragi: 11  fragj: 9

>  <atom.prop.CHAIN_ID>  (300) 
A A A A A A A A A A A Z Z Z Z Z Z Z Z Z

>  <atom.prop.IS_HEAVY_ATOM>  (300) 
1 0 0 0 1 0 0 1 0 0 0 1 0 0 0 1 1 0 0 0

>  <DIFUSE_FUNC_ATOM>  (300) 
n/a

>  <FINAL_SINGLE_POINT_ENERGY>  (300) 
0

>  <NONCOV_INTER_ENERGY_QM>  (300) 
0

>  <FF_Energy>  (300) 
5.07

>  <QM_Energy>  (300) 
-0.11

>  <source>  (300) 
ETAM_MSM

>  <Index>  (300) 
1688

$$$$
ETAM-pdb1go3-F-LYS-71:MSM-pdb1go3-E-MET-1
     RDKit          3D

 20 18  0  0  0  0  0  0  0  0999 V2000
    1.2523    0.8696    0.0000 C   0  0  0  0  0  0  0  0  0  0  0  0
    1.2122    1.4838    0.7831 H   0  0  0  0  0  0  0  0  0  0  0  0
    1.2744    1.3928   -0.8468 H   0  0  0  0  0  0  0  0  0  0  0  0
    2.1627    0.2742    0.0692 H   0  0  0  0  0  0  0  0  0  0  0  0
    0.0000    0.0000    0.0000 C   0  0  0  0  0  0  0  0  0  0  0  0
    0.0092   -0.5839   -0.8161 H   0  0  0  0  0  0  0  0  0  0  0  0
    0.0094   -0.5841    0.8161 H   0  0  0  0  0  0  0  0  0  0  0  0
   -1.2523    0.8175   -0.0000 N   0  0  0  0  0  4  0  0  0  0  0  0
   -1.0353    1.7501    0.2841 H   0  0  0  0  0  0  0  0  0  0  0  0
   -1.6383    0.8257   -0.9212 H   0  0  0  0  0  0  0  0  0  0  0  0
   -1.9074    0.4143    0.6370 H   0  0  0  0  0  0  0  0  0  0  0  0
   -3.8939   -3.0294   -1.1861 C   0  0  0  0  0  0  0  0  0  0  0  0
   -4.3549   -2.6989   -0.3310 H   0  0  0  0  0  0  0  0  0  0  0  0
   -3.7697   -4.0395   -1.0540 H   0  0  0  0  0  0  0  0  0  0  0  0
   -4.5732   -2.8731   -2.0240 H   0  0  0  0  0  0  0  0  0  0  0  0
   -2.3075   -2.2140   -1.4142 S   0  0  0  0  0  0  0  0  0  0  0  0
   -1.4697   -3.3578   -2.4869 C   0  0  0  0  0  0  0  0  0  0  0  0
   -1.8164   -4.2873   -2.3350 H   0  0  0  0  0  0  0  0  0  0  0  0
   -1.6249   -3.1046   -3.4458 H   0  0  0  0  0  0  0  0  0  0  0  0
   -0.4836   -3.3427   -2.3008 H   0  0  0  0  0  0  0  0  0  0  0  0
  1  5  1  0
  5  8  1  0
  1  2  1  0
  1  3  1  0
  1  4  1  0
  5  6  1  0
  5  7  1  0
  8  9  1  0
  8 10  1  0
  8 11  1  0
 12 16  1  0
 16 17  1  0
 12 13  1  0
 12 14  1  0
 12 15  1  0
 17 18  1  0
 17 19  1  0
 17 20  1  0
M  CHG  1   8   1
M  END
>  <PDB_ID>  (301) 
pdb1go3

>  <RESIDUE_NAME>  (301) 
LYS   MET

>  <FRAG_NAME>  (301) 
ETAM   MSM

>  <FRAG_ATOM_NUM>  (301) 
fragi: 11  fragj: 9

>  <atom.prop.CHAIN_ID>  (301) 
A A A A A A A A A A A Z Z Z Z Z Z Z Z Z

>  <atom.prop.IS_HEAVY_ATOM>  (301) 
1 0 0 0 1 0 0 1 0 0 0 1 0 0 0 1 1 0 0 0

>  <DIFUSE_FUNC_ATOM>  (301) 
n/a

>  <FINAL_SINGLE_POINT_ENERGY>  (301) 
0

>  <NONCOV_INTER_ENERGY_QM>  (301) 
0

>  <FF_Energy>  (301) 
-5.32

>  <QM_Energy>  (301) 
-12.31

>  <source>  (301) 
ETAM_MSM

>  <Index>  (301) 
1690

$$$$
ETAM-pdb1gqt-B-LYS-154:MSM-pdb1gqt-B-MET-150
     RDKit          3D

 20 18  0  0  0  0  0  0  0  0999 V2000
    1.2415    0.8700   -0.0000 C   0  0  0  0  0  0  0  0  0  0  0  0
    1.4186    1.1650    0.9312 H   0  0  0  0  0  0  0  0  0  0  0  0
    1.0769    1.6505   -0.5903 H   0  0  0  0  0  0  0  0  0  0  0  0
    2.0974    0.3062   -0.3709 H   0  0  0  0  0  0  0  0  0  0  0  0
    0.0000    0.0000    0.0000 C   0  0  0  0  0  0  0  0  0  0  0  0
    0.0091   -0.5825   -0.8165 H   0  0  0  0  0  0  0  0  0  0  0  0
    0.0082   -0.5831    0.8163 H   0  0  0  0  0  0  0  0  0  0  0  0
   -1.2415    0.8195   -0.0000 N   0  0  0  0  0  4  0  0  0  0  0  0
   -1.3020    1.3304    0.8570 H   0  0  0  0  0  0  0  0  0  0  0  0
   -1.2179    1.4584   -0.7693 H   0  0  0  0  0  0  0  0  0  0  0  0
   -2.0356    0.2188   -0.0878 H   0  0  0  0  0  0  0  0  0  0  0  0
    0.1702   -1.2054    3.3180 C   0  0  0  0  0  0  0  0  0  0  0  0
   -0.5838   -0.5598    3.5499 H   0  0  0  0  0  0  0  0  0  0  0  0
    0.8778   -0.6595    2.8291 H   0  0  0  0  0  0  0  0  0  0  0  0
    0.6012   -1.5852    4.2443 H   0  0  0  0  0  0  0  0  0  0  0  0
   -0.4457   -2.5495    2.2543 S   0  0  0  0  0  0  0  0  0  0  0  0
   -1.9555   -2.9306    3.2158 C   0  0  0  0  0  0  0  0  0  0  0  0
   -1.7898   -3.7522    3.7520 H   0  0  0  0  0  0  0  0  0  0  0  0
   -2.1524   -2.1603    3.8142 H   0  0  0  0  0  0  0  0  0  0  0  0
   -2.7062   -3.0771    2.5802 H   0  0  0  0  0  0  0  0  0  0  0  0
  1  5  1  0
  5  8  1  0
  1  2  1  0
  1  3  1  0
  1  4  1  0
  5  6  1  0
  5  7  1  0
  8  9  1  0
  8 10  1  0
  8 11  1  0
 12 16  1  0
 16 17  1  0
 12 13  1  0
 12 14  1  0
 12 15  1  0
 17 18  1  0
 17 19  1  0
 17 20  1  0
M  CHG  1   8   1
M  END
>  <PDB_ID>  (302) 
pdb1gqt

>  <RESIDUE_NAME>  (302) 
LYS   MET

>  <FRAG_NAME>  (302) 
ETAM   MSM

>  <FRAG_ATOM_NUM>  (302) 
fragi: 11  fragj: 9

>  <atom.prop.CHAIN_ID>  (302) 
A A A A A A A A A A A Z Z Z Z Z Z Z Z Z

>  <atom.prop.IS_HEAVY_ATOM>  (302) 
1 0 0 0 1 0 0 1 0 0 0 1 0 0 0 1 1 0 0 0

>  <DIFUSE_FUNC_ATOM>  (302) 
n/a

>  <FINAL_SINGLE_POINT_ENERGY>  (302) 
0

>  <NONCOV_INTER_ENERGY_QM>  (302) 
0

>  <FF_Energy>  (302) 
0.76

>  <QM_Energy>  (302) 
-5.68

>  <source>  (302) 
ETAM_MSM

>  <Index>  (302) 
1691

$$$$
ETAM-pdb2hke-A-LYS-22:MSM-pdb2hke-A-MET-203
     RDKit          3D

 20 18  0  0  0  0  0  0  0  0999 V2000
    1.2372    0.9089    0.0000 C   0  0  0  0  0  0  0  0  0  0  0  0
    1.2045    1.4680   -0.8501 H   0  0  0  0  0  0  0  0  0  0  0  0
    2.0560    0.3091   -0.0759 H   0  0  0  0  0  0  0  0  0  0  0  0
    1.3606    1.5721    0.8562 H   0  0  0  0  0  0  0  0  0  0  0  0
    0.0000    0.0000    0.0000 C   0  0  0  0  0  0  0  0  0  0  0  0
    0.0502   -0.5893   -0.8163 H   0  0  0  0  0  0  0  0  0  0  0  0
    0.0505   -0.5902    0.8167 H   0  0  0  0  0  0  0  0  0  0  0  0
   -1.2372    0.7558    0.0000 N   0  0  0  0  0  4  0  0  0  0  0  0
   -1.2403    1.4236    0.7527 H   0  0  0  0  0  0  0  0  0  0  0  0
   -1.3452    1.2522   -0.8684 H   0  0  0  0  0  0  0  0  0  0  0  0
   -2.0249    0.1399    0.1155 H   0  0  0  0  0  0  0  0  0  0  0  0
   -2.8051    4.7431    0.1907 C   0  0  0  0  0  0  0  0  0  0  0  0
   -3.3294    4.2923   -0.5514 H   0  0  0  0  0  0  0  0  0  0  0  0
   -1.9025    5.0018   -0.1952 H   0  0  0  0  0  0  0  0  0  0  0  0
   -3.3341    5.6302    0.5391 H   0  0  0  0  0  0  0  0  0  0  0  0
   -2.5567    3.5472    1.5757 S   0  0  0  0  0  0  0  0  0  0  0  0
   -4.2267    2.9769    1.8333 C   0  0  0  0  0  0  0  0  0  0  0  0
   -4.5700    3.3168    2.7123 H   0  0  0  0  0  0  0  0  0  0  0  0
   -4.8180    3.3140    1.0971 H   0  0  0  0  0  0  0  0  0  0  0  0
   -4.2463    1.9753    1.8381 H   0  0  0  0  0  0  0  0  0  0  0  0
  1  5  1  0
  5  8  1  0
  1  2  1  0
  1  3  1  0
  1  4  1  0
  5  6  1  0
  5  7  1  0
  8  9  1  0
  8 10  1  0
  8 11  1  0
 12 16  1  0
 16 17  1  0
 12 13  1  0
 12 14  1  0
 12 15  1  0
 17 18  1  0
 17 19  1  0
 17 20  1  0
M  CHG  1   8   1
M  END
>  <PDB_ID>  (303) 
pdb2hke

>  <RESIDUE_NAME>  (303) 
LYS   MET

>  <FRAG_NAME>  (303) 
ETAM   MSM

>  <FRAG_ATOM_NUM>  (303) 
fragi: 11  fragj: 9

>  <atom.prop.CHAIN_ID>  (303) 
A A A A A A A A A A A Z Z Z Z Z Z Z Z Z

>  <atom.prop.IS_HEAVY_ATOM>  (303) 
1 0 0 0 1 0 0 1 0 0 0 1 0 0 0 1 1 0 0 0

>  <DIFUSE_FUNC_ATOM>  (303) 
n/a

>  <FINAL_SINGLE_POINT_ENERGY>  (303) 
0

>  <NONCOV_INTER_ENERGY_QM>  (303) 
0

>  <FF_Energy>  (303) 
-4.64

>  <QM_Energy>  (303) 
-13.65

>  <source>  (303) 
ETAM_MSM

>  <Index>  (303) 
1695

$$$$
ETAM-pdb2huf-A-LYS-20:MSM-pdb2huf-A-MET-336
     RDKit          3D

 20 18  0  0  0  0  0  0  0  0999 V2000
    1.2324    0.8868   -0.0000 C   0  0  0  0  0  0  0  0  0  0  0  0
    1.2490    1.4118    0.8477 H   0  0  0  0  0  0  0  0  0  0  0  0
    1.1829    1.5029   -0.7815 H   0  0  0  0  0  0  0  0  0  0  0  0
    2.1541    0.3091   -0.0691 H   0  0  0  0  0  0  0  0  0  0  0  0
    0.0000    0.0000    0.0000 C   0  0  0  0  0  0  0  0  0  0  0  0
    0.0130   -0.5746   -0.8158 H   0  0  0  0  0  0  0  0  0  0  0  0
    0.0125   -0.5743    0.8163 H   0  0  0  0  0  0  0  0  0  0  0  0
   -1.2324    0.8276   -0.0000 N   0  0  0  0  0  4  0  0  0  0  0  0
   -1.0702    1.6682    0.5170 H   0  0  0  0  0  0  0  0  0  0  0  0
   -1.4795    1.0579   -0.9418 H   0  0  0  0  0  0  0  0  0  0  0  0
   -1.9786    0.3142    0.4241 H   0  0  0  0  0  0  0  0  0  0  0  0
   -1.4141    1.2697   -4.4434 C   0  0  0  0  0  0  0  0  0  0  0  0
   -2.2124    1.6647   -3.9275 H   0  0  0  0  0  0  0  0  0  0  0  0
   -1.7028    0.3124   -4.6871 H   0  0  0  0  0  0  0  0  0  0  0  0
   -1.2994    1.8339   -5.3689 H   0  0  0  0  0  0  0  0  0  0  0  0
    0.0711    1.2484   -3.4092 S   0  0  0  0  0  0  0  0  0  0  0  0
    0.2253    2.9960   -2.9656 C   0  0  0  0  0  0  0  0  0  0  0  0
   -0.2751    3.1631   -2.1188 H   0  0  0  0  0  0  0  0  0  0  0  0
    1.1901    3.2165   -2.8387 H   0  0  0  0  0  0  0  0  0  0  0  0
   -0.1560    3.5546   -3.6997 H   0  0  0  0  0  0  0  0  0  0  0  0
  1  5  1  0
  5  8  1  0
  1  2  1  0
  1  3  1  0
  1  4  1  0
  5  6  1  0
  5  7  1  0
  8  9  1  0
  8 10  1  0
  8 11  1  0
 12 16  1  0
 16 17  1  0
 12 13  1  0
 12 14  1  0
 12 15  1  0
 17 18  1  0
 17 19  1  0
 17 20  1  0
M  CHG  1   8   1
M  END
>  <PDB_ID>  (304) 
pdb2huf

>  <RESIDUE_NAME>  (304) 
LYS   MET

>  <FRAG_NAME>  (304) 
ETAM   MSM

>  <FRAG_ATOM_NUM>  (304) 
fragi: 11  fragj: 9

>  <atom.prop.CHAIN_ID>  (304) 
A A A A A A A A A A A Z Z Z Z Z Z Z Z Z

>  <atom.prop.IS_HEAVY_ATOM>  (304) 
1 0 0 0 1 0 0 1 0 0 0 1 0 0 0 1 1 0 0 0

>  <DIFUSE_FUNC_ATOM>  (304) 
n/a

>  <FINAL_SINGLE_POINT_ENERGY>  (304) 
0

>  <NONCOV_INTER_ENERGY_QM>  (304) 
0

>  <FF_Energy>  (304) 
-3.97

>  <QM_Energy>  (304) 
-11.4

>  <source>  (304) 
ETAM_MSM

>  <Index>  (304) 
1704

$$$$
ETAM-pdb2huf-B-LYS-20:MSM-pdb2huf-B-MET-336
     RDKit          3D

 20 18  0  0  0  0  0  0  0  0999 V2000
    1.2222    0.9056   -0.0000 C   0  0  0  0  0  0  0  0  0  0  0  0
    1.2107    1.4527    0.8298 H   0  0  0  0  0  0  0  0  0  0  0  0
    1.1839    1.4894   -0.8032 H   0  0  0  0  0  0  0  0  0  0  0  0
    2.1431    0.3230   -0.0279 H   0  0  0  0  0  0  0  0  0  0  0  0
    0.0000    0.0000    0.0000 C   0  0  0  0  0  0  0  0  0  0  0  0
    0.0146   -0.5628   -0.8158 H   0  0  0  0  0  0  0  0  0  0  0  0
    0.0143   -0.5630    0.8164 H   0  0  0  0  0  0  0  0  0  0  0  0
   -1.2222    0.8437    0.0000 N   0  0  0  0  0  4  0  0  0  0  0  0
   -1.6156    0.8599    0.9192 H   0  0  0  0  0  0  0  0  0  0  0  0
   -0.9847    1.7748   -0.2782 H   0  0  0  0  0  0  0  0  0  0  0  0
   -1.8890    0.4643   -0.6414 H   0  0  0  0  0  0  0  0  0  0  0  0
   -1.0545    1.1682   -4.6455 C   0  0  0  0  0  0  0  0  0  0  0  0
   -1.8799    1.5785   -4.1874 H   0  0  0  0  0  0  0  0  0  0  0  0
   -1.3330    0.2059   -4.8820 H   0  0  0  0  0  0  0  0  0  0  0  0
   -0.8824    1.7087   -5.5763 H   0  0  0  0  0  0  0  0  0  0  0  0
    0.3652    1.1716   -3.5347 S   0  0  0  0  0  0  0  0  0  0  0  0
    0.6148    2.9288   -3.2775 C   0  0  0  0  0  0  0  0  0  0  0  0
    1.4852    3.2063   -3.6858 H   0  0  0  0  0  0  0  0  0  0  0  0
   -0.1321    3.4390   -3.7066 H   0  0  0  0  0  0  0  0  0  0  0  0
    0.6304    3.1245   -2.2967 H   0  0  0  0  0  0  0  0  0  0  0  0
  1  5  1  0
  5  8  1  0
  1  2  1  0
  1  3  1  0
  1  4  1  0
  5  6  1  0
  5  7  1  0
  8  9  1  0
  8 10  1  0
  8 11  1  0
 12 16  1  0
 16 17  1  0
 12 13  1  0
 12 14  1  0
 12 15  1  0
 17 18  1  0
 17 19  1  0
 17 20  1  0
M  CHG  1   8   1
M  END
>  <PDB_ID>  (305) 
pdb2huf

>  <RESIDUE_NAME>  (305) 
LYS   MET

>  <FRAG_NAME>  (305) 
ETAM   MSM

>  <FRAG_ATOM_NUM>  (305) 
fragi: 11  fragj: 9

>  <atom.prop.CHAIN_ID>  (305) 
A A A A A A A A A A A Z Z Z Z Z Z Z Z Z

>  <atom.prop.IS_HEAVY_ATOM>  (305) 
1 0 0 0 1 0 0 1 0 0 0 1 0 0 0 1 1 0 0 0

>  <DIFUSE_FUNC_ATOM>  (305) 
n/a

>  <FINAL_SINGLE_POINT_ENERGY>  (305) 
0

>  <NONCOV_INTER_ENERGY_QM>  (305) 
0

>  <FF_Energy>  (305) 
-3.73

>  <QM_Energy>  (305) 
-9.31

>  <source>  (305) 
ETAM_MSM

>  <Index>  (305) 
1705

$$$$
ETAM-pdb2hyi-C-LYS-198:MSM-pdb2hyi-C-MET-228
     RDKit          3D

 20 18  0  0  0  0  0  0  0  0999 V2000
    1.2525    0.8552   -0.0000 C   0  0  0  0  0  0  0  0  0  0  0  0
    1.2296    1.4551    0.7902 H   0  0  0  0  0  0  0  0  0  0  0  0
    1.2806    1.3803   -0.8409 H   0  0  0  0  0  0  0  0  0  0  0  0
    2.1449    0.2320    0.0569 H   0  0  0  0  0  0  0  0  0  0  0  0
    0.0000    0.0000    0.0000 C   0  0  0  0  0  0  0  0  0  0  0  0
    0.0018   -0.5863   -0.8158 H   0  0  0  0  0  0  0  0  0  0  0  0
    0.0017   -0.5868    0.8164 H   0  0  0  0  0  0  0  0  0  0  0  0
   -1.2525    0.8235    0.0000 N   0  0  0  0  0  4  0  0  0  0  0  0
   -1.2265    1.4570    0.7710 H   0  0  0  0  0  0  0  0  0  0  0  0
   -1.3074    1.3329   -0.8562 H   0  0  0  0  0  0  0  0  0  0  0  0
   -2.0408    0.2174    0.0854 H   0  0  0  0  0  0  0  0  0  0  0  0
   -2.5631   -1.5535    3.9828 C   0  0  0  0  0  0  0  0  0  0  0  0
   -2.7649   -1.3968    4.9723 H   0  0  0  0  0  0  0  0  0  0  0  0
   -2.3313   -2.5446    3.8939 H   0  0  0  0  0  0  0  0  0  0  0  0
   -3.4683   -1.3551    3.4090 H   0  0  0  0  0  0  0  0  0  0  0  0
   -1.2027   -0.5260    3.4353 S   0  0  0  0  0  0  0  0  0  0  0  0
   -1.6101    1.0614    4.2053 C   0  0  0  0  0  0  0  0  0  0  0  0
   -0.9223    1.2743    4.8959 H   0  0  0  0  0  0  0  0  0  0  0  0
   -1.6176    1.7713    3.5042 H   0  0  0  0  0  0  0  0  0  0  0  0
   -2.5100    0.9960    4.6312 H   0  0  0  0  0  0  0  0  0  0  0  0
  1  5  1  0
  5  8  1  0
  1  2  1  0
  1  3  1  0
  1  4  1  0
  5  6  1  0
  5  7  1  0
  8  9  1  0
  8 10  1  0
  8 11  1  0
 12 16  1  0
 16 17  1  0
 12 13  1  0
 12 14  1  0
 12 15  1  0
 17 18  1  0
 17 19  1  0
 17 20  1  0
M  CHG  1   8   1
M  END
>  <PDB_ID>  (306) 
pdb2hyi

>  <RESIDUE_NAME>  (306) 
LYS   MET

>  <FRAG_NAME>  (306) 
ETAM   MSM

>  <FRAG_ATOM_NUM>  (306) 
fragi: 11  fragj: 9

>  <atom.prop.CHAIN_ID>  (306) 
A A A A A A A A A A A Z Z Z Z Z Z Z Z Z

>  <atom.prop.IS_HEAVY_ATOM>  (306) 
1 0 0 0 1 0 0 1 0 0 0 1 0 0 0 1 1 0 0 0

>  <DIFUSE_FUNC_ATOM>  (306) 
n/a

>  <FINAL_SINGLE_POINT_ENERGY>  (306) 
0

>  <NONCOV_INTER_ENERGY_QM>  (306) 
0

>  <FF_Energy>  (306) 
-4.32

>  <QM_Energy>  (306) 
-10.74

>  <source>  (306) 
ETAM_MSM

>  <Index>  (306) 
1721

$$$$
ETAM-pdb2hyi-I-LYS-198:MSM-pdb2hyi-I-MET-228
     RDKit          3D

 20 18  0  0  0  0  0  0  0  0999 V2000
    1.2495    0.8634   -0.0000 C   0  0  0  0  0  0  0  0  0  0  0  0
    1.2538    1.4131    0.8264 H   0  0  0  0  0  0  0  0  0  0  0  0
    1.2335    1.4423   -0.8062 H   0  0  0  0  0  0  0  0  0  0  0  0
    2.1470    0.2453   -0.0218 H   0  0  0  0  0  0  0  0  0  0  0  0
    0.0000    0.0000    0.0000 C   0  0  0  0  0  0  0  0  0  0  0  0
    0.0072   -0.5854   -0.8159 H   0  0  0  0  0  0  0  0  0  0  0  0
    0.0070   -0.5857    0.8164 H   0  0  0  0  0  0  0  0  0  0  0  0
   -1.2495    0.8180    0.0000 N   0  0  0  0  0  4  0  0  0  0  0  0
   -1.0261    1.7594   -0.2453 H   0  0  0  0  0  0  0  0  0  0  0  0
   -1.8907    0.4394   -0.6661 H   0  0  0  0  0  0  0  0  0  0  0  0
   -1.6574    0.7947    0.9114 H   0  0  0  0  0  0  0  0  0  0  0  0
   -2.7622   -0.1694    3.8937 C   0  0  0  0  0  0  0  0  0  0  0  0
   -3.0115    0.3553    4.7437 H   0  0  0  0  0  0  0  0  0  0  0  0
   -2.6196   -1.1382    4.2123 H   0  0  0  0  0  0  0  0  0  0  0  0
   -3.6099   -0.1472    3.2089 H   0  0  0  0  0  0  0  0  0  0  0  0
   -1.2372    0.4872    3.1734 S   0  0  0  0  0  0  0  0  0  0  0  0
   -1.5505    2.2609    3.1461 C   0  0  0  0  0  0  0  0  0  0  0  0
   -0.6796    2.7499    3.1176 H   0  0  0  0  0  0  0  0  0  0  0  0
   -2.0904    2.4889    2.3365 H   0  0  0  0  0  0  0  0  0  0  0  0
   -2.0545    2.5205    3.9687 H   0  0  0  0  0  0  0  0  0  0  0  0
  1  5  1  0
  5  8  1  0
  1  2  1  0
  1  3  1  0
  1  4  1  0
  5  6  1  0
  5  7  1  0
  8  9  1  0
  8 10  1  0
  8 11  1  0
 12 16  1  0
 16 17  1  0
 12 13  1  0
 12 14  1  0
 12 15  1  0
 17 18  1  0
 17 19  1  0
 17 20  1  0
M  CHG  1   8   1
M  END
>  <PDB_ID>  (307) 
pdb2hyi

>  <RESIDUE_NAME>  (307) 
LYS   MET

>  <FRAG_NAME>  (307) 
ETAM   MSM

>  <FRAG_ATOM_NUM>  (307) 
fragi: 11  fragj: 9

>  <atom.prop.CHAIN_ID>  (307) 
A A A A A A A A A A A Z Z Z Z Z Z Z Z Z

>  <atom.prop.IS_HEAVY_ATOM>  (307) 
1 0 0 0 1 0 0 1 0 0 0 1 0 0 0 1 1 0 0 0

>  <DIFUSE_FUNC_ATOM>  (307) 
n/a

>  <FINAL_SINGLE_POINT_ENERGY>  (307) 
0

>  <NONCOV_INTER_ENERGY_QM>  (307) 
0

>  <FF_Energy>  (307) 
-4.19

>  <QM_Energy>  (307) 
-14.93

>  <source>  (307) 
ETAM_MSM

>  <Index>  (307) 
1722

$$$$
ETAM-pdb2hzm-H-LYS-91:MSM-pdb2hzm-H-MET-80
     RDKit          3D

 20 18  0  0  0  0  0  0  0  0999 V2000
    1.2560    0.8658   -0.0000 C   0  0  0  0  0  0  0  0  0  0  0  0
    1.2145    1.4821   -0.7809 H   0  0  0  0  0  0  0  0  0  0  0  0
    2.0502    0.2699   -0.0735 H   0  0  0  0  0  0  0  0  0  0  0  0
    1.3410    1.4574    0.9116 H   0  0  0  0  0  0  0  0  0  0  0  0
    0.0000    0.0000    0.0000 C   0  0  0  0  0  0  0  0  0  0  0  0
    0.0104   -0.5868   -0.8163 H   0  0  0  0  0  0  0  0  0  0  0  0
    0.0099   -0.5870    0.8162 H   0  0  0  0  0  0  0  0  0  0  0  0
   -1.2560    0.8117    0.0000 N   0  0  0  0  0  4  0  0  0  0  0  0
   -1.0561    1.7261    0.3486 H   0  0  0  0  0  0  0  0  0  0  0  0
   -1.6058    0.8749   -0.9335 H   0  0  0  0  0  0  0  0  0  0  0  0
   -1.9328    0.3682    0.5847 H   0  0  0  0  0  0  0  0  0  0  0  0
    3.3405   -2.8561   -2.5343 C   0  0  0  0  0  0  0  0  0  0  0  0
    2.6632   -3.1311   -3.2401 H   0  0  0  0  0  0  0  0  0  0  0  0
    3.4220   -3.6334   -1.8844 H   0  0  0  0  0  0  0  0  0  0  0  0
    4.3051   -2.6894   -3.0137 H   0  0  0  0  0  0  0  0  0  0  0  0
    2.7843   -1.3638   -1.6698 S   0  0  0  0  0  0  0  0  0  0  0  0
    3.5668   -1.5610   -0.1039 C   0  0  0  0  0  0  0  0  0  0  0  0
    4.5449   -1.7654   -0.2242 H   0  0  0  0  0  0  0  0  0  0  0  0
    3.4808   -0.7187    0.4394 H   0  0  0  0  0  0  0  0  0  0  0  0
    3.1418   -2.3165    0.4073 H   0  0  0  0  0  0  0  0  0  0  0  0
  1  5  1  0
  5  8  1  0
  1  2  1  0
  1  3  1  0
  1  4  1  0
  5  6  1  0
  5  7  1  0
  8  9  1  0
  8 10  1  0
  8 11  1  0
 12 16  1  0
 16 17  1  0
 12 13  1  0
 12 14  1  0
 12 15  1  0
 17 18  1  0
 17 19  1  0
 17 20  1  0
M  CHG  1   8   1
M  END
>  <PDB_ID>  (308) 
pdb2hzm

>  <RESIDUE_NAME>  (308) 
LYS   MET

>  <FRAG_NAME>  (308) 
ETAM   MSM

>  <FRAG_ATOM_NUM>  (308) 
fragi: 11  fragj: 9

>  <atom.prop.CHAIN_ID>  (308) 
A A A A A A A A A A A Z Z Z Z Z Z Z Z Z

>  <atom.prop.IS_HEAVY_ATOM>  (308) 
1 0 0 0 1 0 0 1 0 0 0 1 0 0 0 1 1 0 0 0

>  <DIFUSE_FUNC_ATOM>  (308) 
n/a

>  <FINAL_SINGLE_POINT_ENERGY>  (308) 
0

>  <NONCOV_INTER_ENERGY_QM>  (308) 
0

>  <FF_Energy>  (308) 
7.08

>  <QM_Energy>  (308) 
-4.15

>  <source>  (308) 
ETAM_MSM

>  <Index>  (308) 
1732

$$$$
ETAM-pdb2i0y-A-LYS-595:MSM-pdb2i0y-A-MET-617
     RDKit          3D

 20 18  0  0  0  0  0  0  0  0999 V2000
    1.2462    0.8730   -0.0000 C   0  0  0  0  0  0  0  0  0  0  0  0
    1.1721    1.5331   -0.7421 H   0  0  0  0  0  0  0  0  0  0  0  0
    2.0422    0.2906   -0.1373 H   0  0  0  0  0  0  0  0  0  0  0  0
    1.3642    1.4137    0.9391 H   0  0  0  0  0  0  0  0  0  0  0  0
    0.0000    0.0000    0.0000 C   0  0  0  0  0  0  0  0  0  0  0  0
    0.0119   -0.5831   -0.8163 H   0  0  0  0  0  0  0  0  0  0  0  0
    0.0120   -0.5831    0.8161 H   0  0  0  0  0  0  0  0  0  0  0  0
   -1.2462    0.8147   -0.0000 N   0  0  0  0  0  4  0  0  0  0  0  0
   -1.0847    1.6673   -0.4956 H   0  0  0  0  0  0  0  0  0  0  0  0
   -1.9780    0.3014   -0.4476 H   0  0  0  0  0  0  0  0  0  0  0  0
   -1.5078    1.0194    0.9425 H   0  0  0  0  0  0  0  0  0  0  0  0
   -0.9558    0.2355    4.0271 C   0  0  0  0  0  0  0  0  0  0  0  0
   -0.7143    1.2329    3.9919 H   0  0  0  0  0  0  0  0  0  0  0  0
   -0.1409   -0.2547    3.6382 H   0  0  0  0  0  0  0  0  0  0  0  0
   -1.0622   -0.0534    5.0727 H   0  0  0  0  0  0  0  0  0  0  0  0
   -2.4292   -0.1028    3.0612 S   0  0  0  0  0  0  0  0  0  0  0  0
   -3.3393    1.3432    3.3936 C   0  0  0  0  0  0  0  0  0  0  0  0
   -2.7709    2.0257    3.8742 H   0  0  0  0  0  0  0  0  0  0  0  0
   -3.6742    1.7644    2.5386 H   0  0  0  0  0  0  0  0  0  0  0  0
   -4.1396    1.1401    3.9748 H   0  0  0  0  0  0  0  0  0  0  0  0
  1  5  1  0
  5  8  1  0
  1  2  1  0
  1  3  1  0
  1  4  1  0
  5  6  1  0
  5  7  1  0
  8  9  1  0
  8 10  1  0
  8 11  1  0
 12 16  1  0
 16 17  1  0
 12 13  1  0
 12 14  1  0
 12 15  1  0
 17 18  1  0
 17 19  1  0
 17 20  1  0
M  CHG  1   8   1
M  END
>  <PDB_ID>  (309) 
pdb2i0y

>  <RESIDUE_NAME>  (309) 
LYS   MET

>  <FRAG_NAME>  (309) 
ETAM   MSM

>  <FRAG_ATOM_NUM>  (309) 
fragi: 11  fragj: 9

>  <atom.prop.CHAIN_ID>  (309) 
A A A A A A A A A A A Z Z Z Z Z Z Z Z Z

>  <atom.prop.IS_HEAVY_ATOM>  (309) 
1 0 0 0 1 0 0 1 0 0 0 1 0 0 0 1 1 0 0 0

>  <DIFUSE_FUNC_ATOM>  (309) 
n/a

>  <FINAL_SINGLE_POINT_ENERGY>  (309) 
0

>  <NONCOV_INTER_ENERGY_QM>  (309) 
0

>  <FF_Energy>  (309) 
-5.09

>  <QM_Energy>  (309) 
-13.9

>  <source>  (309) 
ETAM_MSM

>  <Index>  (309) 
1735

$$$$
ETAM-pdb2i0a-B-LYS-20:MSM-pdb2i0a-B-MET-36
     RDKit          3D

 20 18  0  0  0  0  0  0  0  0999 V2000
    1.2570    0.8670    0.0000 C   0  0  0  0  0  0  0  0  0  0  0  0
    1.3132    1.3361    0.8664 H   0  0  0  0  0  0  0  0  0  0  0  0
    1.1997    1.4996   -0.7544 H   0  0  0  0  0  0  0  0  0  0  0  0
    2.1355    0.2341   -0.1250 H   0  0  0  0  0  0  0  0  0  0  0  0
    0.0000    0.0000    0.0000 C   0  0  0  0  0  0  0  0  0  0  0  0
    0.0232   -0.5970   -0.8165 H   0  0  0  0  0  0  0  0  0  0  0  0
    0.0227   -0.5971    0.8162 H   0  0  0  0  0  0  0  0  0  0  0  0
   -1.2570    0.7802   -0.0000 N   0  0  0  0  0  4  0  0  0  0  0  0
   -1.3308    1.2983    0.8534 H   0  0  0  0  0  0  0  0  0  0  0  0
   -1.2586    1.4148   -0.7740 H   0  0  0  0  0  0  0  0  0  0  0  0
   -2.0378    0.1588   -0.0790 H   0  0  0  0  0  0  0  0  0  0  0  0
   -4.5493    1.5199    1.2924 C   0  0  0  0  0  0  0  0  0  0  0  0
   -4.6081    2.4546    0.8612 H   0  0  0  0  0  0  0  0  0  0  0  0
   -5.3197    1.4967    1.9757 H   0  0  0  0  0  0  0  0  0  0  0  0
   -4.7419    0.7708    0.5243 H   0  0  0  0  0  0  0  0  0  0  0  0
   -2.9525    1.3156    2.1379 S   0  0  0  0  0  0  0  0  0  0  0  0
   -3.0397   -0.3878    2.6859 C   0  0  0  0  0  0  0  0  0  0  0  0
   -2.2589   -0.5904    3.2788 H   0  0  0  0  0  0  0  0  0  0  0  0
   -3.8890   -0.5336    3.1949 H   0  0  0  0  0  0  0  0  0  0  0  0
   -3.0206   -0.9972    1.8924 H   0  0  0  0  0  0  0  0  0  0  0  0
  1  5  1  0
  5  8  1  0
  1  2  1  0
  1  3  1  0
  1  4  1  0
  5  6  1  0
  5  7  1  0
  8  9  1  0
  8 10  1  0
  8 11  1  0
 12 16  1  0
 16 17  1  0
 12 13  1  0
 12 14  1  0
 12 15  1  0
 17 18  1  0
 17 19  1  0
 17 20  1  0
M  CHG  1   8   1
M  END
>  <PDB_ID>  (310) 
pdb2i0a

>  <RESIDUE_NAME>  (310) 
LYS   MET

>  <FRAG_NAME>  (310) 
ETAM   MSM

>  <FRAG_ATOM_NUM>  (310) 
fragi: 11  fragj: 9

>  <atom.prop.CHAIN_ID>  (310) 
A A A A A A A A A A A Z Z Z Z Z Z Z Z Z

>  <atom.prop.IS_HEAVY_ATOM>  (310) 
1 0 0 0 1 0 0 1 0 0 0 1 0 0 0 1 1 0 0 0

>  <DIFUSE_FUNC_ATOM>  (310) 
n/a

>  <FINAL_SINGLE_POINT_ENERGY>  (310) 
0

>  <NONCOV_INTER_ENERGY_QM>  (310) 
0

>  <FF_Energy>  (310) 
3.65

>  <QM_Energy>  (310) 
-6.64

>  <source>  (310) 
ETAM_MSM

>  <Index>  (310) 
1736

$$$$
ETAM-pdb1h6f-A-LYS-273:MSM-pdb1h6f-A-MET-123
     RDKit          3D

 20 18  0  0  0  0  0  0  0  0999 V2000
    1.2529    0.8995   -0.0000 C   0  0  0  0  0  0  0  0  0  0  0  0
    1.0605    1.7075    0.5465 H   0  0  0  0  0  0  0  0  0  0  0  0
    1.4558    1.1556   -0.9383 H   0  0  0  0  0  0  0  0  0  0  0  0
    2.1270    0.4006    0.4187 H   0  0  0  0  0  0  0  0  0  0  0  0
    0.0000    0.0000    0.0000 C   0  0  0  0  0  0  0  0  0  0  0  0
    0.0324   -0.5819   -0.8164 H   0  0  0  0  0  0  0  0  0  0  0  0
    0.0317   -0.5822    0.8161 H   0  0  0  0  0  0  0  0  0  0  0  0
   -1.2529    0.7915    0.0000 N   0  0  0  0  0  4  0  0  0  0  0  0
   -1.0401    1.7560   -0.1603 H   0  0  0  0  0  0  0  0  0  0  0  0
   -1.8587    0.4599   -0.7248 H   0  0  0  0  0  0  0  0  0  0  0  0
   -1.7101    0.6944    0.8845 H   0  0  0  0  0  0  0  0  0  0  0  0
   -5.8527    0.2297   -0.5421 C   0  0  0  0  0  0  0  0  0  0  0  0
   -5.7407   -0.7501   -0.8295 H   0  0  0  0  0  0  0  0  0  0  0  0
   -6.7424    0.5329   -0.9573 H   0  0  0  0  0  0  0  0  0  0  0  0
   -5.9593    0.2540    0.5424 H   0  0  0  0  0  0  0  0  0  0  0  0
   -4.4973    1.2307   -1.1139 S   0  0  0  0  0  0  0  0  0  0  0  0
   -4.5414    0.9085   -2.9185 C   0  0  0  0  0  0  0  0  0  0  0  0
   -3.6936    1.2393   -3.3178 H   0  0  0  0  0  0  0  0  0  0  0  0
   -4.6339   -0.0708   -3.0604 H   0  0  0  0  0  0  0  0  0  0  0  0
   -5.3193    1.3909   -3.3051 H   0  0  0  0  0  0  0  0  0  0  0  0
  1  5  1  0
  5  8  1  0
  1  2  1  0
  1  3  1  0
  1  4  1  0
  5  6  1  0
  5  7  1  0
  8  9  1  0
  8 10  1  0
  8 11  1  0
 12 16  1  0
 16 17  1  0
 12 13  1  0
 12 14  1  0
 12 15  1  0
 17 18  1  0
 17 19  1  0
 17 20  1  0
M  CHG  1   8   1
M  END
>  <PDB_ID>  (311) 
pdb1h6f

>  <RESIDUE_NAME>  (311) 
LYS   MET

>  <FRAG_NAME>  (311) 
ETAM   MSM

>  <FRAG_ATOM_NUM>  (311) 
fragi: 11  fragj: 9

>  <atom.prop.CHAIN_ID>  (311) 
A A A A A A A A A A A Z Z Z Z Z Z Z Z Z

>  <atom.prop.IS_HEAVY_ATOM>  (311) 
1 0 0 0 1 0 0 1 0 0 0 1 0 0 0 1 1 0 0 0

>  <DIFUSE_FUNC_ATOM>  (311) 
n/a

>  <FINAL_SINGLE_POINT_ENERGY>  (311) 
0

>  <NONCOV_INTER_ENERGY_QM>  (311) 
0

>  <FF_Energy>  (311) 
-4.95

>  <QM_Energy>  (311) 
-13.44

>  <source>  (311) 
ETAM_MSM

>  <Index>  (311) 
1742

$$$$
ETAM-pdb1h6p-B-LYS-1158:MSM-pdb1h6p-B-MET-1182
     RDKit          3D

 20 18  0  0  0  0  0  0  0  0999 V2000
    1.2337    0.8804    0.0000 C   0  0  0  0  0  0  0  0  0  0  0  0
    1.2711    1.3766    0.8634 H   0  0  0  0  0  0  0  0  0  0  0  0
    1.1668    1.5218   -0.7602 H   0  0  0  0  0  0  0  0  0  0  0  0
    2.1467    0.2954   -0.1106 H   0  0  0  0  0  0  0  0  0  0  0  0
    0.0000    0.0000    0.0000 C   0  0  0  0  0  0  0  0  0  0  0  0
    0.0064   -0.5736   -0.8158 H   0  0  0  0  0  0  0  0  0  0  0  0
    0.0061   -0.5730    0.8163 H   0  0  0  0  0  0  0  0  0  0  0  0
   -1.2337    0.8375   -0.0000 N   0  0  0  0  0  4  0  0  0  0  0  0
   -1.8472    0.5213   -0.7225 H   0  0  0  0  0  0  0  0  0  0  0  0
   -1.6876    0.7554    0.8863 H   0  0  0  0  0  0  0  0  0  0  0  0
   -0.9857    1.7916   -0.1636 H   0  0  0  0  0  0  0  0  0  0  0  0
    1.7878    4.0358   -0.4561 C   0  0  0  0  0  0  0  0  0  0  0  0
    1.7180    3.1516   -0.9190 H   0  0  0  0  0  0  0  0  0  0  0  0
    2.7505    4.2524   -0.2963 H   0  0  0  0  0  0  0  0  0  0  0  0
    1.3244    4.8128   -1.0639 H   0  0  0  0  0  0  0  0  0  0  0  0
    0.8883    3.9790    1.1361 S   0  0  0  0  0  0  0  0  0  0  0  0
    1.1750    5.6553    1.7130 C   0  0  0  0  0  0  0  0  0  0  0  0
    0.3851    6.2251    1.4867 H   0  0  0  0  0  0  0  0  0  0  0  0
    1.3078    5.6480    2.7046 H   0  0  0  0  0  0  0  0  0  0  0  0
    1.9914    6.0258    1.2688 H   0  0  0  0  0  0  0  0  0  0  0  0
  1  5  1  0
  5  8  1  0
  1  2  1  0
  1  3  1  0
  1  4  1  0
  5  6  1  0
  5  7  1  0
  8  9  1  0
  8 10  1  0
  8 11  1  0
 12 16  1  0
 16 17  1  0
 12 13  1  0
 12 14  1  0
 12 15  1  0
 17 18  1  0
 17 19  1  0
 17 20  1  0
M  CHG  1   8   1
M  END
>  <PDB_ID>  (312) 
pdb1h6p

>  <RESIDUE_NAME>  (312) 
LYS   MET

>  <FRAG_NAME>  (312) 
ETAM   MSM

>  <FRAG_ATOM_NUM>  (312) 
fragi: 11  fragj: 9

>  <atom.prop.CHAIN_ID>  (312) 
A A A A A A A A A A A Z Z Z Z Z Z Z Z Z

>  <atom.prop.IS_HEAVY_ATOM>  (312) 
1 0 0 0 1 0 0 1 0 0 0 1 0 0 0 1 1 0 0 0

>  <DIFUSE_FUNC_ATOM>  (312) 
n/a

>  <FINAL_SINGLE_POINT_ENERGY>  (312) 
0

>  <NONCOV_INTER_ENERGY_QM>  (312) 
0

>  <FF_Energy>  (312) 
3.56

>  <QM_Energy>  (312) 
-6.34

>  <source>  (312) 
ETAM_MSM

>  <Index>  (312) 
1743

$$$$
ETAM-pdb1h6f-B-LYS-273:MSM-pdb1h6f-B-MET-123
     RDKit          3D

 20 18  0  0  0  0  0  0  0  0999 V2000
    1.2459    0.9202    0.0000 C   0  0  0  0  0  0  0  0  0  0  0  0
    1.0565    1.6973    0.5567 H   0  0  0  0  0  0  0  0  0  0  0  0
    1.4673    1.1420   -0.9231 H   0  0  0  0  0  0  0  0  0  0  0  0
    2.0749    0.3653    0.4391 H   0  0  0  0  0  0  0  0  0  0  0  0
    0.0000    0.0000    0.0000 C   0  0  0  0  0  0  0  0  0  0  0  0
    0.0480   -0.5816   -0.8166 H   0  0  0  0  0  0  0  0  0  0  0  0
    0.0478   -0.5816    0.8162 H   0  0  0  0  0  0  0  0  0  0  0  0
   -1.2459    0.7713   -0.0000 N   0  0  0  0  0  4  0  0  0  0  0  0
   -2.0329    0.1515   -0.0507 H   0  0  0  0  0  0  0  0  0  0  0  0
   -1.3129    1.3144    0.8412 H   0  0  0  0  0  0  0  0  0  0  0  0
   -1.2665    1.3898   -0.7904 H   0  0  0  0  0  0  0  0  0  0  0  0
   -5.7809    0.4648   -0.5662 C   0  0  0  0  0  0  0  0  0  0  0  0
   -5.6064   -0.5213   -0.7368 H   0  0  0  0  0  0  0  0  0  0  0  0
   -6.6558    0.6943   -1.0292 H   0  0  0  0  0  0  0  0  0  0  0  0
   -5.9386    0.5853    0.5057 H   0  0  0  0  0  0  0  0  0  0  0  0
   -4.4346    1.4891   -1.1427 S   0  0  0  0  0  0  0  0  0  0  0  0
   -4.4237    1.1045   -2.9098 C   0  0  0  0  0  0  0  0  0  0  0  0
   -3.4791    1.0534   -3.2281 H   0  0  0  0  0  0  0  0  0  0  0  0
   -4.8771    0.2272   -3.0568 H   0  0  0  0  0  0  0  0  0  0  0  0
   -4.9091    1.8229   -3.4040 H   0  0  0  0  0  0  0  0  0  0  0  0
  1  5  1  0
  5  8  1  0
  1  2  1  0
  1  3  1  0
  1  4  1  0
  5  6  1  0
  5  7  1  0
  8  9  1  0
  8 10  1  0
  8 11  1  0
 12 16  1  0
 16 17  1  0
 12 13  1  0
 12 14  1  0
 12 15  1  0
 17 18  1  0
 17 19  1  0
 17 20  1  0
M  CHG  1   8   1
M  END
>  <PDB_ID>  (313) 
pdb1h6f

>  <RESIDUE_NAME>  (313) 
LYS   MET

>  <FRAG_NAME>  (313) 
ETAM   MSM

>  <FRAG_ATOM_NUM>  (313) 
fragi: 11  fragj: 9

>  <atom.prop.CHAIN_ID>  (313) 
A A A A A A A A A A A Z Z Z Z Z Z Z Z Z

>  <atom.prop.IS_HEAVY_ATOM>  (313) 
1 0 0 0 1 0 0 1 0 0 0 1 0 0 0 1 1 0 0 0

>  <DIFUSE_FUNC_ATOM>  (313) 
n/a

>  <FINAL_SINGLE_POINT_ENERGY>  (313) 
0

>  <NONCOV_INTER_ENERGY_QM>  (313) 
0

>  <FF_Energy>  (313) 
-4.74

>  <QM_Energy>  (313) 
-12.66

>  <source>  (313) 
ETAM_MSM

>  <Index>  (313) 
1751

$$$$
ETAM-pdb1h7z-A-LYS-155:MSM-pdb1h7z-A-MET-174
     RDKit          3D

 20 18  0  0  0  0  0  0  0  0999 V2000
    1.2285    0.9090   -0.0000 C   0  0  0  0  0  0  0  0  0  0  0  0
    1.1675    1.5216    0.7780 H   0  0  0  0  0  0  0  0  0  0  0  0
    1.2432    1.4188   -0.8499 H   0  0  0  0  0  0  0  0  0  0  0  0
    2.1476    0.3286    0.0801 H   0  0  0  0  0  0  0  0  0  0  0  0
    0.0000    0.0000    0.0000 C   0  0  0  0  0  0  0  0  0  0  0  0
    0.0099   -0.5567   -0.8161 H   0  0  0  0  0  0  0  0  0  0  0  0
    0.0096   -0.5573    0.8162 H   0  0  0  0  0  0  0  0  0  0  0  0
   -1.2285    0.8573   -0.0000 N   0  0  0  0  0  4  0  0  0  0  0  0
   -1.7990    0.6114    0.7815 H   0  0  0  0  0  0  0  0  0  0  0  0
   -0.9579    1.8157    0.0669 H   0  0  0  0  0  0  0  0  0  0  0  0
   -1.7329    0.7058   -0.8481 H   0  0  0  0  0  0  0  0  0  0  0  0
    1.1435    3.3622    3.7067 C   0  0  0  0  0  0  0  0  0  0  0  0
    0.9512    2.3821    3.9290 H   0  0  0  0  0  0  0  0  0  0  0  0
    0.9213    3.8899    4.5540 H   0  0  0  0  0  0  0  0  0  0  0  0
    2.2083    3.4685    3.4994 H   0  0  0  0  0  0  0  0  0  0  0  0
    0.0860    3.9165    2.3198 S   0  0  0  0  0  0  0  0  0  0  0  0
   -1.4914    4.0076    3.1586 C   0  0  0  0  0  0  0  0  0  0  0  0
   -1.5167    4.8225    3.7401 H   0  0  0  0  0  0  0  0  0  0  0  0
   -2.2297    4.0596    2.4838 H   0  0  0  0  0  0  0  0  0  0  0  0
   -1.6193    3.1921    3.7258 H   0  0  0  0  0  0  0  0  0  0  0  0
  1  5  1  0
  5  8  1  0
  1  2  1  0
  1  3  1  0
  1  4  1  0
  5  6  1  0
  5  7  1  0
  8  9  1  0
  8 10  1  0
  8 11  1  0
 12 16  1  0
 16 17  1  0
 12 13  1  0
 12 14  1  0
 12 15  1  0
 17 18  1  0
 17 19  1  0
 17 20  1  0
M  CHG  1   8   1
M  END
>  <PDB_ID>  (314) 
pdb1h7z

>  <RESIDUE_NAME>  (314) 
LYS   MET

>  <FRAG_NAME>  (314) 
ETAM   MSM

>  <FRAG_ATOM_NUM>  (314) 
fragi: 11  fragj: 9

>  <atom.prop.CHAIN_ID>  (314) 
A A A A A A A A A A A Z Z Z Z Z Z Z Z Z

>  <atom.prop.IS_HEAVY_ATOM>  (314) 
1 0 0 0 1 0 0 1 0 0 0 1 0 0 0 1 1 0 0 0

>  <DIFUSE_FUNC_ATOM>  (314) 
n/a

>  <FINAL_SINGLE_POINT_ENERGY>  (314) 
0

>  <NONCOV_INTER_ENERGY_QM>  (314) 
0

>  <FF_Energy>  (314) 
-4.02

>  <QM_Energy>  (314) 
-9.6

>  <source>  (314) 
ETAM_MSM

>  <Index>  (314) 
1756

$$$$
ETAM-pdb2i62-C-LYS-100:MSM-pdb2i62-B-MET-206
     RDKit          3D

 20 18  0  0  0  0  0  0  0  0999 V2000
    1.3302    0.8217   -0.0000 C   0  0  0  0  0  0  0  0  0  0  0  0
    1.2190    1.5801    0.6309 H   0  0  0  0  0  0  0  0  0  0  0  0
    1.4810    1.1540   -0.9239 H   0  0  0  0  0  0  0  0  0  0  0  0
    2.1913    0.2292    0.3090 H   0  0  0  0  0  0  0  0  0  0  0  0
    0.0000    0.0000    0.0000 C   0  0  0  0  0  0  0  0  0  0  0  0
   -0.0037   -0.6051   -0.8163 H   0  0  0  0  0  0  0  0  0  0  0  0
   -0.0039   -0.6050    0.8166 H   0  0  0  0  0  0  0  0  0  0  0  0
   -1.3302    0.8010   -0.0000 N   0  0  0  0  0  4  0  0  0  0  0  0
   -1.8565    0.5072    0.7854 H   0  0  0  0  0  0  0  0  0  0  0  0
   -1.1007    1.7613    0.0601 H   0  0  0  0  0  0  0  0  0  0  0  0
   -1.8027    0.5965   -0.8452 H   0  0  0  0  0  0  0  0  0  0  0  0
   -4.7313    3.6651   -0.4082 C   0  0  0  0  0  0  0  0  0  0  0  0
   -4.9035    3.5001   -1.4161 H   0  0  0  0  0  0  0  0  0  0  0  0
   -3.8291    4.1757   -0.3896 H   0  0  0  0  0  0  0  0  0  0  0  0
   -5.5034    4.3458   -0.0496 H   0  0  0  0  0  0  0  0  0  0  0  0
   -4.6233    2.1297    0.4890 S   0  0  0  0  0  0  0  0  0  0  0  0
   -4.2854    2.6818    2.1629 C   0  0  0  0  0  0  0  0  0  0  0  0
   -4.5951    1.9870    2.8130 H   0  0  0  0  0  0  0  0  0  0  0  0
   -3.3019    2.8265    2.2745 H   0  0  0  0  0  0  0  0  0  0  0  0
   -4.7698    3.5396    2.3364 H   0  0  0  0  0  0  0  0  0  0  0  0
  1  5  1  0
  5  8  1  0
  1  2  1  0
  1  3  1  0
  1  4  1  0
  5  6  1  0
  5  7  1  0
  8  9  1  0
  8 10  1  0
  8 11  1  0
 12 16  1  0
 16 17  1  0
 12 13  1  0
 12 14  1  0
 12 15  1  0
 17 18  1  0
 17 19  1  0
 17 20  1  0
M  CHG  1   8   1
M  END
>  <PDB_ID>  (315) 
pdb2i62

>  <RESIDUE_NAME>  (315) 
LYS   MET

>  <FRAG_NAME>  (315) 
ETAM   MSM

>  <FRAG_ATOM_NUM>  (315) 
fragi: 11  fragj: 9

>  <atom.prop.CHAIN_ID>  (315) 
A A A A A A A A A A A Z Z Z Z Z Z Z Z Z

>  <atom.prop.IS_HEAVY_ATOM>  (315) 
1 0 0 0 1 0 0 1 0 0 0 1 0 0 0 1 1 0 0 0

>  <DIFUSE_FUNC_ATOM>  (315) 
n/a

>  <FINAL_SINGLE_POINT_ENERGY>  (315) 
0

>  <NONCOV_INTER_ENERGY_QM>  (315) 
0

>  <FF_Energy>  (315) 
-3.87

>  <QM_Energy>  (315) 
-9.7

>  <source>  (315) 
ETAM_MSM

>  <Index>  (315) 
1774

$$$$
ETAM-pdb2i48-A-LYS-292:MSM-pdb2i48-A-MET-54
     RDKit          3D

 20 18  0  0  0  0  0  0  0  0999 V2000
    1.2418    0.8740    0.0000 C   0  0  0  0  0  0  0  0  0  0  0  0
    1.1956    1.4911    0.7761 H   0  0  0  0  0  0  0  0  0  0  0  0
    1.2712    1.3826   -0.8512 H   0  0  0  0  0  0  0  0  0  0  0  0
    2.1426    0.2660    0.0833 H   0  0  0  0  0  0  0  0  0  0  0  0
    0.0000    0.0000    0.0000 C   0  0  0  0  0  0  0  0  0  0  0  0
    0.0097   -0.5804   -0.8162 H   0  0  0  0  0  0  0  0  0  0  0  0
    0.0098   -0.5805    0.8168 H   0  0  0  0  0  0  0  0  0  0  0  0
   -1.2418    0.8220    0.0000 N   0  0  0  0  0  4  0  0  0  0  0  0
   -2.0124    0.2572    0.2946 H   0  0  0  0  0  0  0  0  0  0  0  0
   -1.1303    1.5910    0.6287 H   0  0  0  0  0  0  0  0  0  0  0  0
   -1.4111    1.1654   -0.9227 H   0  0  0  0  0  0  0  0  0  0  0  0
   -5.5976    2.7373    0.9942 C   0  0  0  0  0  0  0  0  0  0  0  0
   -6.1165    1.8617    0.9755 H   0  0  0  0  0  0  0  0  0  0  0  0
   -6.1923    3.4377    0.5553 H   0  0  0  0  0  0  0  0  0  0  0  0
   -5.4216    3.0213    2.0316 H   0  0  0  0  0  0  0  0  0  0  0  0
   -4.0391    2.5720    0.0922 S   0  0  0  0  0  0  0  0  0  0  0  0
   -3.4701    4.2822    0.0565 C   0  0  0  0  0  0  0  0  0  0  0  0
   -3.0193    4.4979    0.9216 H   0  0  0  0  0  0  0  0  0  0  0  0
   -2.8247    4.3994   -0.6965 H   0  0  0  0  0  0  0  0  0  0  0  0
   -4.2541    4.8886   -0.0746 H   0  0  0  0  0  0  0  0  0  0  0  0
  1  5  1  0
  5  8  1  0
  1  2  1  0
  1  3  1  0
  1  4  1  0
  5  6  1  0
  5  7  1  0
  8  9  1  0
  8 10  1  0
  8 11  1  0
 12 16  1  0
 16 17  1  0
 12 13  1  0
 12 14  1  0
 12 15  1  0
 17 18  1  0
 17 19  1  0
 17 20  1  0
M  CHG  1   8   1
M  END
>  <PDB_ID>  (316) 
pdb2i48

>  <RESIDUE_NAME>  (316) 
LYS   MET

>  <FRAG_NAME>  (316) 
ETAM   MSM

>  <FRAG_ATOM_NUM>  (316) 
fragi: 11  fragj: 9

>  <atom.prop.CHAIN_ID>  (316) 
A A A A A A A A A A A Z Z Z Z Z Z Z Z Z

>  <atom.prop.IS_HEAVY_ATOM>  (316) 
1 0 0 0 1 0 0 1 0 0 0 1 0 0 0 1 1 0 0 0

>  <DIFUSE_FUNC_ATOM>  (316) 
n/a

>  <FINAL_SINGLE_POINT_ENERGY>  (316) 
0

>  <NONCOV_INTER_ENERGY_QM>  (316) 
0

>  <FF_Energy>  (316) 
-4.86

>  <QM_Energy>  (316) 
-12.04

>  <source>  (316) 
ETAM_MSM

>  <Index>  (316) 
1775

$$$$
ETAM-pdb1hah-H-LYS-109:MSM-pdb1hah-H-MET-84
     RDKit          3D

 20 18  0  0  0  0  0  0  0  0999 V2000
    1.2602    0.8543    0.0000 C   0  0  0  0  0  0  0  0  0  0  0  0
    2.0537    0.2499   -0.0587 H   0  0  0  0  0  0  0  0  0  0  0  0
    1.2938    1.3702    0.8546 H   0  0  0  0  0  0  0  0  0  0  0  0
    1.2938    1.5556   -0.8337 H   0  0  0  0  0  0  0  0  0  0  0  0
    0.0000    0.0000    0.0000 C   0  0  0  0  0  0  0  0  0  0  0  0
    0.0021   -0.5872   -0.8161 H   0  0  0  0  0  0  0  0  0  0  0  0
    0.0015   -0.5875    0.8161 H   0  0  0  0  0  0  0  0  0  0  0  0
   -1.2602    0.8219   -0.0000 N   0  0  0  0  0  4  0  0  0  0  0  0
   -1.2521    1.4267    0.7929 H   0  0  0  0  0  0  0  0  0  0  0  0
   -1.2962    1.3596   -0.8384 H   0  0  0  0  0  0  0  0  0  0  0  0
   -2.0452    0.2096    0.0464 H   0  0  0  0  0  0  0  0  0  0  0  0
   -1.3883    4.0835    3.0682 C   0  0  0  0  0  0  0  0  0  0  0  0
   -1.4258    3.8690    4.0211 H   0  0  0  0  0  0  0  0  0  0  0  0
   -1.5348    5.0314    2.8791 H   0  0  0  0  0  0  0  0  0  0  0  0
   -0.4417    3.7519    2.6413 H   0  0  0  0  0  0  0  0  0  0  0  0
   -2.6677    3.0678    2.1568 S   0  0  0  0  0  0  0  0  0  0  0  0
   -3.7146    2.8899    3.6693 C   0  0  0  0  0  0  0  0  0  0  0  0
   -3.5282    2.0020    4.0698 H   0  0  0  0  0  0  0  0  0  0  0  0
   -3.4729    3.6178    4.2979 H   0  0  0  0  0  0  0  0  0  0  0  0
   -4.6654    2.9614    3.3955 H   0  0  0  0  0  0  0  0  0  0  0  0
  1  5  1  0
  5  8  1  0
  1  2  1  0
  1  3  1  0
  1  4  1  0
  5  6  1  0
  5  7  1  0
  8  9  1  0
  8 10  1  0
  8 11  1  0
 12 16  1  0
 16 17  1  0
 12 13  1  0
 12 14  1  0
 12 15  1  0
 17 18  1  0
 17 19  1  0
 17 20  1  0
M  CHG  1   8   1
M  END
>  <PDB_ID>  (317) 
pdb1hah

>  <RESIDUE_NAME>  (317) 
LYS   MET

>  <FRAG_NAME>  (317) 
ETAM   MSM

>  <FRAG_ATOM_NUM>  (317) 
fragi: 11  fragj: 9

>  <atom.prop.CHAIN_ID>  (317) 
A A A A A A A A A A A Z Z Z Z Z Z Z Z Z

>  <atom.prop.IS_HEAVY_ATOM>  (317) 
1 0 0 0 1 0 0 1 0 0 0 1 0 0 0 1 1 0 0 0

>  <DIFUSE_FUNC_ATOM>  (317) 
n/a

>  <FINAL_SINGLE_POINT_ENERGY>  (317) 
0

>  <NONCOV_INTER_ENERGY_QM>  (317) 
0

>  <FF_Energy>  (317) 
-4.95

>  <QM_Energy>  (317) 
-13.76

>  <source>  (317) 
ETAM_MSM

>  <Index>  (317) 
1779

$$$$
ETAM-pdb2i2x-A-LYS-289:MSM-pdb2i2x-A-MET-304
     RDKit          3D

 20 18  0  0  0  0  0  0  0  0999 V2000
    1.2343    0.8758   -0.0000 C   0  0  0  0  0  0  0  0  0  0  0  0
    1.3162    1.3016    0.9056 H   0  0  0  0  0  0  0  0  0  0  0  0
    1.1072    1.5958   -0.6881 H   0  0  0  0  0  0  0  0  0  0  0  0
    2.1446    0.3190   -0.2218 H   0  0  0  0  0  0  0  0  0  0  0  0
    0.0000    0.0000    0.0000 C   0  0  0  0  0  0  0  0  0  0  0  0
   -0.0106   -0.5622   -0.8165 H   0  0  0  0  0  0  0  0  0  0  0  0
   -0.0106   -0.5627    0.8161 H   0  0  0  0  0  0  0  0  0  0  0  0
   -1.2343    0.8751    0.0000 N   0  0  0  0  0  4  0  0  0  0  0  0
   -1.8028    0.6253   -0.7787 H   0  0  0  0  0  0  0  0  0  0  0  0
   -1.7308    0.7264    0.8502 H   0  0  0  0  0  0  0  0  0  0  0  0
   -0.9506    1.8272   -0.0719 H   0  0  0  0  0  0  0  0  0  0  0  0
    0.0934   -3.9639   -3.8553 C   0  0  0  0  0  0  0  0  0  0  0  0
    0.5851   -4.8580   -3.6024 H   0  0  0  0  0  0  0  0  0  0  0  0
    0.8984   -3.3382   -4.1105 H   0  0  0  0  0  0  0  0  0  0  0  0
   -0.4787   -4.1509   -4.7640 H   0  0  0  0  0  0  0  0  0  0  0  0
   -0.7745   -3.2897   -2.3759 S   0  0  0  0  0  0  0  0  0  0  0  0
   -0.9506   -1.6378   -2.9772 C   0  0  0  0  0  0  0  0  0  0  0  0
   -1.9066   -1.3377   -2.8955 H   0  0  0  0  0  0  0  0  0  0  0  0
   -0.3696   -1.0107   -2.4474 H   0  0  0  0  0  0  0  0  0  0  0  0
   -0.6793   -1.5888   -3.9443 H   0  0  0  0  0  0  0  0  0  0  0  0
  1  5  1  0
  5  8  1  0
  1  2  1  0
  1  3  1  0
  1  4  1  0
  5  6  1  0
  5  7  1  0
  8  9  1  0
  8 10  1  0
  8 11  1  0
 12 16  1  0
 16 17  1  0
 12 13  1  0
 12 14  1  0
 12 15  1  0
 17 18  1  0
 17 19  1  0
 17 20  1  0
M  CHG  1   8   1
M  END
>  <PDB_ID>  (318) 
pdb2i2x

>  <RESIDUE_NAME>  (318) 
LYS   MET

>  <FRAG_NAME>  (318) 
ETAM   MSM

>  <FRAG_ATOM_NUM>  (318) 
fragi: 11  fragj: 9

>  <atom.prop.CHAIN_ID>  (318) 
A A A A A A A A A A A Z Z Z Z Z Z Z Z Z

>  <atom.prop.IS_HEAVY_ATOM>  (318) 
1 0 0 0 1 0 0 1 0 0 0 1 0 0 0 1 1 0 0 0

>  <DIFUSE_FUNC_ATOM>  (318) 
n/a

>  <FINAL_SINGLE_POINT_ENERGY>  (318) 
0

>  <NONCOV_INTER_ENERGY_QM>  (318) 
0

>  <FF_Energy>  (318) 
4.41

>  <QM_Energy>  (318) 
-1.27

>  <source>  (318) 
ETAM_MSM

>  <Index>  (318) 
1780

$$$$
ETAM-pdb1hbm-A-LYS-13:MSM-pdb1hbm-A-MET-70
     RDKit          3D

 20 18  0  0  0  0  0  0  0  0999 V2000
    1.2326    0.8913   -0.0000 C   0  0  0  0  0  0  0  0  0  0  0  0
    1.9760    0.4150    0.4227 H   0  0  0  0  0  0  0  0  0  0  0  0
    1.0193    1.7381    0.4414 H   0  0  0  0  0  0  0  0  0  0  0  0
    1.5045    1.1018   -1.0344 H   0  0  0  0  0  0  0  0  0  0  0  0
    0.0000    0.0000    0.0000 C   0  0  0  0  0  0  0  0  0  0  0  0
    0.0053   -0.5656   -0.8159 H   0  0  0  0  0  0  0  0  0  0  0  0
    0.0052   -0.5661    0.8167 H   0  0  0  0  0  0  0  0  0  0  0  0
   -1.2326    0.8500   -0.0000 N   0  0  0  0  0  4  0  0  0  0  0  0
   -1.0117    1.7470    0.3789 H   0  0  0  0  0  0  0  0  0  0  0  0
   -1.5613    0.9501   -0.9378 H   0  0  0  0  0  0  0  0  0  0  0  0
   -1.9331    0.4101    0.5582 H   0  0  0  0  0  0  0  0  0  0  0  0
    0.1481    5.2486    0.3193 C   0  0  0  0  0  0  0  0  0  0  0  0
    1.1153    5.1868    0.0060 H   0  0  0  0  0  0  0  0  0  0  0  0
   -0.0216    6.2278    0.5426 H   0  0  0  0  0  0  0  0  0  0  0  0
   -0.5063    4.9557   -0.5017 H   0  0  0  0  0  0  0  0  0  0  0  0
   -0.1145    4.2081    1.7824 S   0  0  0  0  0  0  0  0  0  0  0  0
   -1.7026    4.8634    2.3225 C   0  0  0  0  0  0  0  0  0  0  0  0
   -1.8644    4.5975    3.2727 H   0  0  0  0  0  0  0  0  0  0  0  0
   -1.6909    5.8604    2.2503 H   0  0  0  0  0  0  0  0  0  0  0  0
   -2.4279    4.4939    1.7430 H   0  0  0  0  0  0  0  0  0  0  0  0
  1  5  1  0
  5  8  1  0
  1  2  1  0
  1  3  1  0
  1  4  1  0
  5  6  1  0
  5  7  1  0
  8  9  1  0
  8 10  1  0
  8 11  1  0
 12 16  1  0
 16 17  1  0
 12 13  1  0
 12 14  1  0
 12 15  1  0
 17 18  1  0
 17 19  1  0
 17 20  1  0
M  CHG  1   8   1
M  END
>  <PDB_ID>  (319) 
pdb1hbm

>  <RESIDUE_NAME>  (319) 
LYS   MET

>  <FRAG_NAME>  (319) 
ETAM   MSM

>  <FRAG_ATOM_NUM>  (319) 
fragi: 11  fragj: 9

>  <atom.prop.CHAIN_ID>  (319) 
A A A A A A A A A A A Z Z Z Z Z Z Z Z Z

>  <atom.prop.IS_HEAVY_ATOM>  (319) 
1 0 0 0 1 0 0 1 0 0 0 1 0 0 0 1 1 0 0 0

>  <DIFUSE_FUNC_ATOM>  (319) 
n/a

>  <FINAL_SINGLE_POINT_ENERGY>  (319) 
0

>  <NONCOV_INTER_ENERGY_QM>  (319) 
0

>  <FF_Energy>  (319) 
-4.15

>  <QM_Energy>  (319) 
-11.77

>  <source>  (319) 
ETAM_MSM

>  <Index>  (319) 
1796

$$$$
ETAM-pdb1hdi-A-LYS-219:MSM-pdb1hdi-A-MET-239
     RDKit          3D

 20 18  0  0  0  0  0  0  0  0999 V2000
    1.2406    0.9001   -0.0000 C   0  0  0  0  0  0  0  0  0  0  0  0
    1.1338    1.5753   -0.7268 H   0  0  0  0  0  0  0  0  0  0  0  0
    2.0374    0.3286   -0.1833 H   0  0  0  0  0  0  0  0  0  0  0  0
    1.3789    1.4162    0.9501 H   0  0  0  0  0  0  0  0  0  0  0  0
    0.0000    0.0000    0.0000 C   0  0  0  0  0  0  0  0  0  0  0  0
    0.0230   -0.5740   -0.8160 H   0  0  0  0  0  0  0  0  0  0  0  0
    0.0233   -0.5743    0.8165 H   0  0  0  0  0  0  0  0  0  0  0  0
   -1.2406    0.8149   -0.0000 N   0  0  0  0  0  4  0  0  0  0  0  0
   -1.7515    0.6451   -0.8429 H   0  0  0  0  0  0  0  0  0  0  0  0
   -1.8044    0.5640    0.7872 H   0  0  0  0  0  0  0  0  0  0  0  0
   -1.0024    1.7846    0.0556 H   0  0  0  0  0  0  0  0  0  0  0  0
   -0.1498    2.6507   -3.7611 C   0  0  0  0  0  0  0  0  0  0  0  0
   -0.7525    3.2827   -3.2368 H   0  0  0  0  0  0  0  0  0  0  0  0
   -0.6388    1.7583   -3.8118 H   0  0  0  0  0  0  0  0  0  0  0  0
   -0.0089    3.0420   -4.7687 H   0  0  0  0  0  0  0  0  0  0  0  0
    1.4394    2.4505   -2.9162 S   0  0  0  0  0  0  0  0  0  0  0  0
    2.5832    2.1492   -4.2578 C   0  0  0  0  0  0  0  0  0  0  0  0
    2.0748    1.9083   -5.0862 H   0  0  0  0  0  0  0  0  0  0  0  0
    3.1251    2.9738   -4.4310 H   0  0  0  0  0  0  0  0  0  0  0  0
    3.1967    1.3955   -4.0153 H   0  0  0  0  0  0  0  0  0  0  0  0
  1  5  1  0
  5  8  1  0
  1  2  1  0
  1  3  1  0
  1  4  1  0
  5  6  1  0
  5  7  1  0
  8  9  1  0
  8 10  1  0
  8 11  1  0
 12 16  1  0
 16 17  1  0
 12 13  1  0
 12 14  1  0
 12 15  1  0
 17 18  1  0
 17 19  1  0
 17 20  1  0
M  CHG  1   8   1
M  END
>  <PDB_ID>  (320) 
pdb1hdi

>  <RESIDUE_NAME>  (320) 
LYS   MET

>  <FRAG_NAME>  (320) 
ETAM   MSM

>  <FRAG_ATOM_NUM>  (320) 
fragi: 11  fragj: 9

>  <atom.prop.CHAIN_ID>  (320) 
A A A A A A A A A A A Z Z Z Z Z Z Z Z Z

>  <atom.prop.IS_HEAVY_ATOM>  (320) 
1 0 0 0 1 0 0 1 0 0 0 1 0 0 0 1 1 0 0 0

>  <DIFUSE_FUNC_ATOM>  (320) 
n/a

>  <FINAL_SINGLE_POINT_ENERGY>  (320) 
0

>  <NONCOV_INTER_ENERGY_QM>  (320) 
0

>  <FF_Energy>  (320) 
1.68

>  <QM_Energy>  (320) 
-4.14

>  <source>  (320) 
ETAM_MSM

>  <Index>  (320) 
1799

$$$$
ETAM-pdb1hfj-A-LYS-168:MSM-pdb1hfj-A-MET-121
     RDKit          3D

 20 18  0  0  0  0  0  0  0  0999 V2000
    1.2543    0.8641    0.0000 C   0  0  0  0  0  0  0  0  0  0  0  0
    1.1903    1.5094    0.7519 H   0  0  0  0  0  0  0  0  0  0  0  0
    1.3062    1.3418   -0.8684 H   0  0  0  0  0  0  0  0  0  0  0  0
    2.1479    0.2530    0.1273 H   0  0  0  0  0  0  0  0  0  0  0  0
    0.0000    0.0000    0.0000 C   0  0  0  0  0  0  0  0  0  0  0  0
    0.0066   -0.5845   -0.8161 H   0  0  0  0  0  0  0  0  0  0  0  0
    0.0063   -0.5846    0.8163 H   0  0  0  0  0  0  0  0  0  0  0  0
   -1.2543    0.8192    0.0000 N   0  0  0  0  0  4  0  0  0  0  0  0
   -1.8836    0.4528   -0.6824 H   0  0  0  0  0  0  0  0  0  0  0  0
   -1.6729    0.7752    0.9044 H   0  0  0  0  0  0  0  0  0  0  0  0
   -1.0263    1.7652   -0.2225 H   0  0  0  0  0  0  0  0  0  0  0  0
   -1.9898   -1.3402    4.9982 C   0  0  0  0  0  0  0  0  0  0  0  0
   -1.5605   -0.6761    5.6349 H   0  0  0  0  0  0  0  0  0  0  0  0
   -1.4451   -2.1957    5.0471 H   0  0  0  0  0  0  0  0  0  0  0  0
   -3.0099   -1.5432    5.3243 H   0  0  0  0  0  0  0  0  0  0  0  0
   -1.9663   -0.6780    3.2909 S   0  0  0  0  0  0  0  0  0  0  0  0
   -2.4024   -2.0996    2.3817 C   0  0  0  0  0  0  0  0  0  0  0  0
   -1.8947   -2.9075    2.7120 H   0  0  0  0  0  0  0  0  0  0  0  0
   -3.3887   -2.2931    2.4685 H   0  0  0  0  0  0  0  0  0  0  0  0
   -2.1928   -1.9784    1.4024 H   0  0  0  0  0  0  0  0  0  0  0  0
  1  5  1  0
  5  8  1  0
  1  2  1  0
  1  3  1  0
  1  4  1  0
  5  6  1  0
  5  7  1  0
  8  9  1  0
  8 10  1  0
  8 11  1  0
 12 16  1  0
 16 17  1  0
 12 13  1  0
 12 14  1  0
 12 15  1  0
 17 18  1  0
 17 19  1  0
 17 20  1  0
M  CHG  1   8   1
M  END
>  <PDB_ID>  (321) 
pdb1hfj

>  <RESIDUE_NAME>  (321) 
LYS   MET

>  <FRAG_NAME>  (321) 
ETAM   MSM

>  <FRAG_ATOM_NUM>  (321) 
fragi: 11  fragj: 9

>  <atom.prop.CHAIN_ID>  (321) 
A A A A A A A A A A A Z Z Z Z Z Z Z Z Z

>  <atom.prop.IS_HEAVY_ATOM>  (321) 
1 0 0 0 1 0 0 1 0 0 0 1 0 0 0 1 1 0 0 0

>  <DIFUSE_FUNC_ATOM>  (321) 
n/a

>  <FINAL_SINGLE_POINT_ENERGY>  (321) 
0

>  <NONCOV_INTER_ENERGY_QM>  (321) 
0

>  <FF_Energy>  (321) 
-4.85

>  <QM_Energy>  (321) 
-10.16

>  <source>  (321) 
ETAM_MSM

>  <Index>  (321) 
1804

$$$$
ETAM-pdb1hi9-A-LYS-83:MSM-pdb1hi9-A-MET-63
     RDKit          3D

 20 18  0  0  0  0  0  0  0  0999 V2000
    1.2338    0.8886   -0.0000 C   0  0  0  0  0  0  0  0  0  0  0  0
    1.3988    1.2028    0.9283 H   0  0  0  0  0  0  0  0  0  0  0  0
    1.0698    1.6586   -0.6052 H   0  0  0  0  0  0  0  0  0  0  0  0
    2.1104    0.3428   -0.3493 H   0  0  0  0  0  0  0  0  0  0  0  0
    0.0000    0.0000    0.0000 C   0  0  0  0  0  0  0  0  0  0  0  0
    0.0183   -0.5777   -0.8164 H   0  0  0  0  0  0  0  0  0  0  0  0
    0.0180   -0.5781    0.8159 H   0  0  0  0  0  0  0  0  0  0  0  0
   -1.2338    0.8153   -0.0000 N   0  0  0  0  0  4  0  0  0  0  0  0
   -1.0362    1.7249   -0.3689 H   0  0  0  0  0  0  0  0  0  0  0  0
   -1.9295    0.3720   -0.5674 H   0  0  0  0  0  0  0  0  0  0  0  0
   -1.5778    0.9048    0.9355 H   0  0  0  0  0  0  0  0  0  0  0  0
   -3.9960   -1.0747   -2.2251 C   0  0  0  0  0  0  0  0  0  0  0  0
   -4.7524   -0.8656   -1.5550 H   0  0  0  0  0  0  0  0  0  0  0  0
   -4.4117   -1.7550   -2.8813 H   0  0  0  0  0  0  0  0  0  0  0  0
   -3.7688   -0.1628   -2.7774 H   0  0  0  0  0  0  0  0  0  0  0  0
   -2.5745   -1.7995   -1.3740 S   0  0  0  0  0  0  0  0  0  0  0  0
   -3.3524   -3.1173   -0.4511 C   0  0  0  0  0  0  0  0  0  0  0  0
   -3.0552   -4.0034   -0.8112 H   0  0  0  0  0  0  0  0  0  0  0  0
   -3.0953   -3.0509    0.5151 H   0  0  0  0  0  0  0  0  0  0  0  0
   -4.3482   -3.0451   -0.5340 H   0  0  0  0  0  0  0  0  0  0  0  0
  1  5  1  0
  5  8  1  0
  1  2  1  0
  1  3  1  0
  1  4  1  0
  5  6  1  0
  5  7  1  0
  8  9  1  0
  8 10  1  0
  8 11  1  0
 12 16  1  0
 16 17  1  0
 12 13  1  0
 12 14  1  0
 12 15  1  0
 17 18  1  0
 17 19  1  0
 17 20  1  0
M  CHG  1   8   1
M  END
>  <PDB_ID>  (322) 
pdb1hi9

>  <RESIDUE_NAME>  (322) 
LYS   MET

>  <FRAG_NAME>  (322) 
ETAM   MSM

>  <FRAG_ATOM_NUM>  (322) 
fragi: 11  fragj: 9

>  <atom.prop.CHAIN_ID>  (322) 
A A A A A A A A A A A Z Z Z Z Z Z Z Z Z

>  <atom.prop.IS_HEAVY_ATOM>  (322) 
1 0 0 0 1 0 0 1 0 0 0 1 0 0 0 1 1 0 0 0

>  <DIFUSE_FUNC_ATOM>  (322) 
n/a

>  <FINAL_SINGLE_POINT_ENERGY>  (322) 
0

>  <NONCOV_INTER_ENERGY_QM>  (322) 
0

>  <FF_Energy>  (322) 
-5.09

>  <QM_Energy>  (322) 
-15.41

>  <source>  (322) 
ETAM_MSM

>  <Index>  (322) 
1812

$$$$
ETAM-pdb1hi9-B-LYS-83:MSM-pdb1hi9-B-MET-63
     RDKit          3D

 20 18  0  0  0  0  0  0  0  0999 V2000
    1.2408    0.8894   -0.0000 C   0  0  0  0  0  0  0  0  0  0  0  0
    1.3942    1.2146    0.9265 H   0  0  0  0  0  0  0  0  0  0  0  0
    1.0796    1.6538   -0.6145 H   0  0  0  0  0  0  0  0  0  0  0  0
    2.1225    0.3431   -0.3351 H   0  0  0  0  0  0  0  0  0  0  0  0
    0.0000    0.0000    0.0000 C   0  0  0  0  0  0  0  0  0  0  0  0
    0.0168   -0.5767   -0.8163 H   0  0  0  0  0  0  0  0  0  0  0  0
    0.0170   -0.5765    0.8165 H   0  0  0  0  0  0  0  0  0  0  0  0
   -1.2408    0.8184    0.0000 N   0  0  0  0  0  4  0  0  0  0  0  0
   -1.6595    0.7884    0.9078 H   0  0  0  0  0  0  0  0  0  0  0  0
   -1.0151    1.7643   -0.2323 H   0  0  0  0  0  0  0  0  0  0  0  0
   -1.8809    0.4523   -0.6757 H   0  0  0  0  0  0  0  0  0  0  0  0
   -3.9359   -0.9565   -2.3517 C   0  0  0  0  0  0  0  0  0  0  0  0
   -4.7314   -0.7504   -1.7280 H   0  0  0  0  0  0  0  0  0  0  0  0
   -4.3101   -1.6361   -3.0330 H   0  0  0  0  0  0  0  0  0  0  0  0
   -3.6841   -0.0427   -2.8899 H   0  0  0  0  0  0  0  0  0  0  0  0
   -2.5653   -1.6551   -1.4352 S   0  0  0  0  0  0  0  0  0  0  0  0
   -3.3142   -3.0761   -0.6676 C   0  0  0  0  0  0  0  0  0  0  0  0
   -2.6279   -3.5792   -0.1375 H   0  0  0  0  0  0  0  0  0  0  0  0
   -4.0514   -2.7836   -0.0539 H   0  0  0  0  0  0  0  0  0  0  0  0
   -3.6943   -3.6823   -1.3703 H   0  0  0  0  0  0  0  0  0  0  0  0
  1  5  1  0
  5  8  1  0
  1  2  1  0
  1  3  1  0
  1  4  1  0
  5  6  1  0
  5  7  1  0
  8  9  1  0
  8 10  1  0
  8 11  1  0
 12 16  1  0
 16 17  1  0
 12 13  1  0
 12 14  1  0
 12 15  1  0
 17 18  1  0
 17 19  1  0
 17 20  1  0
M  CHG  1   8   1
M  END
>  <PDB_ID>  (323) 
pdb1hi9

>  <RESIDUE_NAME>  (323) 
LYS   MET

>  <FRAG_NAME>  (323) 
ETAM   MSM

>  <FRAG_ATOM_NUM>  (323) 
fragi: 11  fragj: 9

>  <atom.prop.CHAIN_ID>  (323) 
A A A A A A A A A A A Z Z Z Z Z Z Z Z Z

>  <atom.prop.IS_HEAVY_ATOM>  (323) 
1 0 0 0 1 0 0 1 0 0 0 1 0 0 0 1 1 0 0 0

>  <DIFUSE_FUNC_ATOM>  (323) 
n/a

>  <FINAL_SINGLE_POINT_ENERGY>  (323) 
0

>  <NONCOV_INTER_ENERGY_QM>  (323) 
0

>  <FF_Energy>  (323) 
-4.6

>  <QM_Energy>  (323) 
-14.71

>  <source>  (323) 
ETAM_MSM

>  <Index>  (323) 
1815

$$$$
ETAM-pdb1hi9-C-LYS-83:MSM-pdb1hi9-C-MET-63
     RDKit          3D

 20 18  0  0  0  0  0  0  0  0999 V2000
    1.2432    0.8799    0.0000 C   0  0  0  0  0  0  0  0  0  0  0  0
    1.4143    1.1855    0.9302 H   0  0  0  0  0  0  0  0  0  0  0  0
    1.0805    1.6565   -0.5979 H   0  0  0  0  0  0  0  0  0  0  0  0
    2.1142    0.3312   -0.3586 H   0  0  0  0  0  0  0  0  0  0  0  0
    0.0000    0.0000    0.0000 C   0  0  0  0  0  0  0  0  0  0  0  0
    0.0150   -0.5806   -0.8164 H   0  0  0  0  0  0  0  0  0  0  0  0
    0.0144   -0.5809    0.8162 H   0  0  0  0  0  0  0  0  0  0  0  0
   -1.2432    0.8147   -0.0000 N   0  0  0  0  0  4  0  0  0  0  0  0
   -2.0249    0.2293   -0.2156 H   0  0  0  0  0  0  0  0  0  0  0  0
   -1.3722    1.2252    0.9028 H   0  0  0  0  0  0  0  0  0  0  0  0
   -1.1673    1.5374   -0.6874 H   0  0  0  0  0  0  0  0  0  0  0  0
   -4.0246   -0.9717   -2.1453 C   0  0  0  0  0  0  0  0  0  0  0  0
   -4.7863   -0.7354   -1.4780 H   0  0  0  0  0  0  0  0  0  0  0  0
   -4.4711   -1.6521   -2.7922 H   0  0  0  0  0  0  0  0  0  0  0  0
   -3.7946   -0.0723   -2.7165 H   0  0  0  0  0  0  0  0  0  0  0  0
   -2.6371   -1.7027   -1.3032 S   0  0  0  0  0  0  0  0  0  0  0  0
   -3.3882   -3.0901   -0.4692 C   0  0  0  0  0  0  0  0  0  0  0  0
   -4.2459   -3.3357   -0.9255 H   0  0  0  0  0  0  0  0  0  0  0  0
   -2.7670   -3.8757   -0.4909 H   0  0  0  0  0  0  0  0  0  0  0  0
   -3.5799   -2.8497    0.4843 H   0  0  0  0  0  0  0  0  0  0  0  0
  1  5  1  0
  5  8  1  0
  1  2  1  0
  1  3  1  0
  1  4  1  0
  5  6  1  0
  5  7  1  0
  8  9  1  0
  8 10  1  0
  8 11  1  0
 12 16  1  0
 16 17  1  0
 12 13  1  0
 12 14  1  0
 12 15  1  0
 17 18  1  0
 17 19  1  0
 17 20  1  0
M  CHG  1   8   1
M  END
>  <PDB_ID>  (324) 
pdb1hi9

>  <RESIDUE_NAME>  (324) 
LYS   MET

>  <FRAG_NAME>  (324) 
ETAM   MSM

>  <FRAG_ATOM_NUM>  (324) 
fragi: 11  fragj: 9

>  <atom.prop.CHAIN_ID>  (324) 
A A A A A A A A A A A Z Z Z Z Z Z Z Z Z

>  <atom.prop.IS_HEAVY_ATOM>  (324) 
1 0 0 0 1 0 0 1 0 0 0 1 0 0 0 1 1 0 0 0

>  <DIFUSE_FUNC_ATOM>  (324) 
n/a

>  <FINAL_SINGLE_POINT_ENERGY>  (324) 
0

>  <NONCOV_INTER_ENERGY_QM>  (324) 
0

>  <FF_Energy>  (324) 
-4.87

>  <QM_Energy>  (324) 
-16.36

>  <source>  (324) 
ETAM_MSM

>  <Index>  (324) 
1817

$$$$
ETAM-pdb1hi9-D-LYS-83:MSM-pdb1hi9-D-MET-63
     RDKit          3D

 20 18  0  0  0  0  0  0  0  0999 V2000
    1.2301    0.8750   -0.0000 C   0  0  0  0  0  0  0  0  0  0  0  0
    1.3844    1.2127    0.9247 H   0  0  0  0  0  0  0  0  0  0  0  0
    1.0808    1.6383   -0.6224 H   0  0  0  0  0  0  0  0  0  0  0  0
    2.1122    0.3229   -0.3239 H   0  0  0  0  0  0  0  0  0  0  0  0
    0.0000    0.0000    0.0000 C   0  0  0  0  0  0  0  0  0  0  0  0
    0.0080   -0.5782   -0.8159 H   0  0  0  0  0  0  0  0  0  0  0  0
    0.0077   -0.5781    0.8164 H   0  0  0  0  0  0  0  0  0  0  0  0
   -1.2301    0.8288   -0.0000 N   0  0  0  0  0  4  0  0  0  0  0  0
   -1.7703    0.6246   -0.8176 H   0  0  0  0  0  0  0  0  0  0  0  0
   -1.7712    0.6241    0.8159 H   0  0  0  0  0  0  0  0  0  0  0  0
   -0.9800    1.7980    0.0015 H   0  0  0  0  0  0  0  0  0  0  0  0
   -4.0235   -0.9923   -2.2366 C   0  0  0  0  0  0  0  0  0  0  0  0
   -4.8060   -0.7624   -1.6006 H   0  0  0  0  0  0  0  0  0  0  0  0
   -4.4220   -1.6884   -2.8890 H   0  0  0  0  0  0  0  0  0  0  0  0
   -3.7721   -0.0968   -2.8049 H   0  0  0  0  0  0  0  0  0  0  0  0
   -2.6454   -1.6954   -1.3200 S   0  0  0  0  0  0  0  0  0  0  0  0
   -3.4308   -3.0437   -0.5006 C   0  0  0  0  0  0  0  0  0  0  0  0
   -3.7620   -3.7162   -1.1720 H   0  0  0  0  0  0  0  0  0  0  0  0
   -2.7841   -3.5019    0.1187 H   0  0  0  0  0  0  0  0  0  0  0  0
   -4.2146   -2.7172    0.0386 H   0  0  0  0  0  0  0  0  0  0  0  0
  1  5  1  0
  5  8  1  0
  1  2  1  0
  1  3  1  0
  1  4  1  0
  5  6  1  0
  5  7  1  0
  8  9  1  0
  8 10  1  0
  8 11  1  0
 12 16  1  0
 16 17  1  0
 12 13  1  0
 12 14  1  0
 12 15  1  0
 17 18  1  0
 17 19  1  0
 17 20  1  0
M  CHG  1   8   1
M  END
>  <PDB_ID>  (325) 
pdb1hi9

>  <RESIDUE_NAME>  (325) 
LYS   MET

>  <FRAG_NAME>  (325) 
ETAM   MSM

>  <FRAG_ATOM_NUM>  (325) 
fragi: 11  fragj: 9

>  <atom.prop.CHAIN_ID>  (325) 
A A A A A A A A A A A Z Z Z Z Z Z Z Z Z

>  <atom.prop.IS_HEAVY_ATOM>  (325) 
1 0 0 0 1 0 0 1 0 0 0 1 0 0 0 1 1 0 0 0

>  <DIFUSE_FUNC_ATOM>  (325) 
n/a

>  <FINAL_SINGLE_POINT_ENERGY>  (325) 
0

>  <NONCOV_INTER_ENERGY_QM>  (325) 
0

>  <FF_Energy>  (325) 
-4.74

>  <QM_Energy>  (325) 
-13.61

>  <source>  (325) 
ETAM_MSM

>  <Index>  (325) 
1820

$$$$
ETAM-pdb1hi9-E-LYS-83:MSM-pdb1hi9-E-MET-63
     RDKit          3D

 20 18  0  0  0  0  0  0  0  0999 V2000
    1.2329    0.8882   -0.0000 C   0  0  0  0  0  0  0  0  0  0  0  0
    1.3807    1.2260    0.9223 H   0  0  0  0  0  0  0  0  0  0  0  0
    1.0805    1.6427   -0.6281 H   0  0  0  0  0  0  0  0  0  0  0  0
    2.1160    0.3346   -0.3189 H   0  0  0  0  0  0  0  0  0  0  0  0
    0.0000    0.0000    0.0000 C   0  0  0  0  0  0  0  0  0  0  0  0
    0.0211   -0.5798   -0.8163 H   0  0  0  0  0  0  0  0  0  0  0  0
    0.0211   -0.5803    0.8162 H   0  0  0  0  0  0  0  0  0  0  0  0
   -1.2329    0.8079    0.0000 N   0  0  0  0  0  4  0  0  0  0  0  0
   -1.7320    0.6638    0.8564 H   0  0  0  0  0  0  0  0  0  0  0  0
   -1.0019    1.7788   -0.0872 H   0  0  0  0  0  0  0  0  0  0  0  0
   -1.8148    0.5375   -0.7690 H   0  0  0  0  0  0  0  0  0  0  0  0
   -3.9430   -1.0023   -2.3508 C   0  0  0  0  0  0  0  0  0  0  0  0
   -4.7303   -0.7817   -1.7201 H   0  0  0  0  0  0  0  0  0  0  0  0
   -4.3288   -1.6925   -3.0150 H   0  0  0  0  0  0  0  0  0  0  0  0
   -3.6898   -0.0994   -2.9065 H   0  0  0  0  0  0  0  0  0  0  0  0
   -2.5643   -1.7145   -1.4227 S   0  0  0  0  0  0  0  0  0  0  0  0
   -3.3821   -3.0489   -0.5842 C   0  0  0  0  0  0  0  0  0  0  0  0
   -3.9641   -2.6881    0.1501 H   0  0  0  0  0  0  0  0  0  0  0  0
   -3.9540   -3.5620   -1.2300 H   0  0  0  0  0  0  0  0  0  0  0  0
   -2.7032   -3.6710   -0.1853 H   0  0  0  0  0  0  0  0  0  0  0  0
  1  5  1  0
  5  8  1  0
  1  2  1  0
  1  3  1  0
  1  4  1  0
  5  6  1  0
  5  7  1  0
  8  9  1  0
  8 10  1  0
  8 11  1  0
 12 16  1  0
 16 17  1  0
 12 13  1  0
 12 14  1  0
 12 15  1  0
 17 18  1  0
 17 19  1  0
 17 20  1  0
M  CHG  1   8   1
M  END
>  <PDB_ID>  (326) 
pdb1hi9

>  <RESIDUE_NAME>  (326) 
LYS   MET

>  <FRAG_NAME>  (326) 
ETAM   MSM

>  <FRAG_ATOM_NUM>  (326) 
fragi: 11  fragj: 9

>  <atom.prop.CHAIN_ID>  (326) 
A A A A A A A A A A A Z Z Z Z Z Z Z Z Z

>  <atom.prop.IS_HEAVY_ATOM>  (326) 
1 0 0 0 1 0 0 1 0 0 0 1 0 0 0 1 1 0 0 0

>  <DIFUSE_FUNC_ATOM>  (326) 
n/a

>  <FINAL_SINGLE_POINT_ENERGY>  (326) 
0

>  <NONCOV_INTER_ENERGY_QM>  (326) 
0

>  <FF_Energy>  (326) 
-4.72

>  <QM_Energy>  (326) 
-14.03

>  <source>  (326) 
ETAM_MSM

>  <Index>  (326) 
1823

$$$$
ETAM-pdb1ho3-D-LYS-162:MSM-pdb1ho3-D-MET-115
     RDKit          3D

 20 18  0  0  0  0  0  0  0  0999 V2000
    1.2405    0.8722    0.0000 C   0  0  0  0  0  0  0  0  0  0  0  0
    1.2802    1.3702    0.8543 H   0  0  0  0  0  0  0  0  0  0  0  0
    1.1963    1.4896   -0.7731 H   0  0  0  0  0  0  0  0  0  0  0  0
    2.1341    0.2547   -0.0903 H   0  0  0  0  0  0  0  0  0  0  0  0
    0.0000    0.0000    0.0000 C   0  0  0  0  0  0  0  0  0  0  0  0
    0.0136   -0.5848   -0.8165 H   0  0  0  0  0  0  0  0  0  0  0  0
    0.0139   -0.5850    0.8167 H   0  0  0  0  0  0  0  0  0  0  0  0
   -1.2405    0.8101   -0.0000 N   0  0  0  0  0  4  0  0  0  0  0  0
   -1.0417    1.7280    0.3454 H   0  0  0  0  0  0  0  0  0  0  0  0
   -1.5967    0.8761   -0.9326 H   0  0  0  0  0  0  0  0  0  0  0  0
   -1.9247    0.3759    0.5875 H   0  0  0  0  0  0  0  0  0  0  0  0
   -2.1048   -2.8157    3.8167 C   0  0  0  0  0  0  0  0  0  0  0  0
   -1.8903   -2.3160    4.6852 H   0  0  0  0  0  0  0  0  0  0  0  0
   -1.4165   -3.5728    3.7567 H   0  0  0  0  0  0  0  0  0  0  0  0
   -3.0984   -3.2549    3.9059 H   0  0  0  0  0  0  0  0  0  0  0  0
   -1.9747   -1.7219    2.4018 S   0  0  0  0  0  0  0  0  0  0  0  0
   -2.0067   -2.8646    1.0720 C   0  0  0  0  0  0  0  0  0  0  0  0
   -1.0752   -3.0327    0.7266 H   0  0  0  0  0  0  0  0  0  0  0  0
   -2.3981   -3.7445    1.3697 H   0  0  0  0  0  0  0  0  0  0  0  0
   -2.5661   -2.5095    0.3130 H   0  0  0  0  0  0  0  0  0  0  0  0
  1  5  1  0
  5  8  1  0
  1  2  1  0
  1  3  1  0
  1  4  1  0
  5  6  1  0
  5  7  1  0
  8  9  1  0
  8 10  1  0
  8 11  1  0
 12 16  1  0
 16 17  1  0
 12 13  1  0
 12 14  1  0
 12 15  1  0
 17 18  1  0
 17 19  1  0
 17 20  1  0
M  CHG  1   8   1
M  END
>  <PDB_ID>  (327) 
pdb1ho3

>  <RESIDUE_NAME>  (327) 
LYS   MET

>  <FRAG_NAME>  (327) 
ETAM   MSM

>  <FRAG_ATOM_NUM>  (327) 
fragi: 11  fragj: 9

>  <atom.prop.CHAIN_ID>  (327) 
A A A A A A A A A A A Z Z Z Z Z Z Z Z Z

>  <atom.prop.IS_HEAVY_ATOM>  (327) 
1 0 0 0 1 0 0 1 0 0 0 1 0 0 0 1 1 0 0 0

>  <DIFUSE_FUNC_ATOM>  (327) 
n/a

>  <FINAL_SINGLE_POINT_ENERGY>  (327) 
0

>  <NONCOV_INTER_ENERGY_QM>  (327) 
0

>  <FF_Energy>  (327) 
-4.74

>  <QM_Energy>  (327) 
-10.76

>  <source>  (327) 
ETAM_MSM

>  <Index>  (327) 
1839

$$$$
ETAM-pdb1hfb-C-LYS-201:MSM-pdb1hfb-C-MET-314
     RDKit          3D

 20 18  0  0  0  0  0  0  0  0999 V2000
    1.2403    0.8533   -0.0000 C   0  0  0  0  0  0  0  0  0  0  0  0
    1.1558    1.5416   -0.7145 H   0  0  0  0  0  0  0  0  0  0  0  0
    2.0293    0.2721   -0.1736 H   0  0  0  0  0  0  0  0  0  0  0  0
    1.3687    1.3512    0.9611 H   0  0  0  0  0  0  0  0  0  0  0  0
    0.0000    0.0000    0.0000 C   0  0  0  0  0  0  0  0  0  0  0  0
    0.0026   -0.5886   -0.8157 H   0  0  0  0  0  0  0  0  0  0  0  0
    0.0024   -0.5884    0.8163 H   0  0  0  0  0  0  0  0  0  0  0  0
   -1.2403    0.8200    0.0000 N   0  0  0  0  0  4  0  0  0  0  0  0
   -1.2775    1.3658    0.8368 H   0  0  0  0  0  0  0  0  0  0  0  0
   -1.2374    1.4262   -0.7956 H   0  0  0  0  0  0  0  0  0  0  0  0
   -2.0376    0.2174   -0.0415 H   0  0  0  0  0  0  0  0  0  0  0  0
   -2.7496   -3.6942   -2.7050 C   0  0  0  0  0  0  0  0  0  0  0  0
   -3.6013   -3.2458   -3.0349 H   0  0  0  0  0  0  0  0  0  0  0  0
   -3.0035   -4.6424   -2.4379 H   0  0  0  0  0  0  0  0  0  0  0  0
   -2.0405   -3.7428   -3.5314 H   0  0  0  0  0  0  0  0  0  0  0  0
   -2.0499   -2.8001   -1.3123 S   0  0  0  0  0  0  0  0  0  0  0  0
   -1.0410   -4.0929   -0.5463 C   0  0  0  0  0  0  0  0  0  0  0  0
   -1.6280   -4.6808    0.0075 H   0  0  0  0  0  0  0  0  0  0  0  0
   -0.6020   -4.6313   -1.2621 H   0  0  0  0  0  0  0  0  0  0  0  0
   -0.3477   -3.6666    0.0315 H   0  0  0  0  0  0  0  0  0  0  0  0
  1  5  1  0
  5  8  1  0
  1  2  1  0
  1  3  1  0
  1  4  1  0
  5  6  1  0
  5  7  1  0
  8  9  1  0
  8 10  1  0
  8 11  1  0
 12 16  1  0
 16 17  1  0
 12 13  1  0
 12 14  1  0
 12 15  1  0
 17 18  1  0
 17 19  1  0
 17 20  1  0
M  CHG  1   8   1
M  END
>  <PDB_ID>  (328) 
pdb1hfb

>  <RESIDUE_NAME>  (328) 
LYS   MET

>  <FRAG_NAME>  (328) 
ETAM   MSM

>  <FRAG_ATOM_NUM>  (328) 
fragi: 11  fragj: 9

>  <atom.prop.CHAIN_ID>  (328) 
A A A A A A A A A A A Z Z Z Z Z Z Z Z Z

>  <atom.prop.IS_HEAVY_ATOM>  (328) 
1 0 0 0 1 0 0 1 0 0 0 1 0 0 0 1 1 0 0 0

>  <DIFUSE_FUNC_ATOM>  (328) 
n/a

>  <FINAL_SINGLE_POINT_ENERGY>  (328) 
0

>  <NONCOV_INTER_ENERGY_QM>  (328) 
0

>  <FF_Energy>  (328) 
-4.89

>  <QM_Energy>  (328) 
-10.52

>  <source>  (328) 
ETAM_MSM

>  <Index>  (328) 
1844

$$$$
ETAM-pdb2iex-A-LYS-258:MSM-pdb2iex-A-MET-254
     RDKit          3D

 20 18  0  0  0  0  0  0  0  0999 V2000
    1.2500    0.8689   -0.0000 C   0  0  0  0  0  0  0  0  0  0  0  0
    1.2035    1.4898   -0.7755 H   0  0  0  0  0  0  0  0  0  0  0  0
    2.0451    0.2778   -0.0760 H   0  0  0  0  0  0  0  0  0  0  0  0
    1.3265    1.4524    0.9175 H   0  0  0  0  0  0  0  0  0  0  0  0
    0.0000    0.0000    0.0000 C   0  0  0  0  0  0  0  0  0  0  0  0
    0.0101   -0.5837   -0.8164 H   0  0  0  0  0  0  0  0  0  0  0  0
    0.0087   -0.5838    0.8162 H   0  0  0  0  0  0  0  0  0  0  0  0
   -1.2500    0.8174   -0.0000 N   0  0  0  0  0  4  0  0  0  0  0  0
   -1.7920    0.5887    0.8073 H   0  0  0  0  0  0  0  0  0  0  0  0
   -1.0092    1.7862    0.0185 H   0  0  0  0  0  0  0  0  0  0  0  0
   -1.7739    0.6169   -0.8261 H   0  0  0  0  0  0  0  0  0  0  0  0
    1.6764   -1.5321   -2.6921 C   0  0  0  0  0  0  0  0  0  0  0  0
    1.0630   -1.1763   -1.9421 H   0  0  0  0  0  0  0  0  0  0  0  0
    2.6038   -1.1319   -2.4796 H   0  0  0  0  0  0  0  0  0  0  0  0
    1.7430   -2.6151   -2.5886 H   0  0  0  0  0  0  0  0  0  0  0  0
    1.0936   -0.9630   -4.3145 S   0  0  0  0  0  0  0  0  0  0  0  0
   -0.6803   -0.9219   -4.0525 C   0  0  0  0  0  0  0  0  0  0  0  0
   -1.1050   -1.7021   -4.5134 H   0  0  0  0  0  0  0  0  0  0  0  0
   -0.8744   -0.9693   -3.0718 H   0  0  0  0  0  0  0  0  0  0  0  0
   -1.0543   -0.0719   -4.4249 H   0  0  0  0  0  0  0  0  0  0  0  0
  1  5  1  0
  5  8  1  0
  1  2  1  0
  1  3  1  0
  1  4  1  0
  5  6  1  0
  5  7  1  0
  8  9  1  0
  8 10  1  0
  8 11  1  0
 12 16  1  0
 16 17  1  0
 12 13  1  0
 12 14  1  0
 12 15  1  0
 17 18  1  0
 17 19  1  0
 17 20  1  0
M  CHG  1   8   1
M  END
>  <PDB_ID>  (329) 
pdb2iex

>  <RESIDUE_NAME>  (329) 
LYS   MET

>  <FRAG_NAME>  (329) 
ETAM   MSM

>  <FRAG_ATOM_NUM>  (329) 
fragi: 11  fragj: 9

>  <atom.prop.CHAIN_ID>  (329) 
A A A A A A A A A A A Z Z Z Z Z Z Z Z Z

>  <atom.prop.IS_HEAVY_ATOM>  (329) 
1 0 0 0 1 0 0 1 0 0 0 1 0 0 0 1 1 0 0 0

>  <DIFUSE_FUNC_ATOM>  (329) 
n/a

>  <FINAL_SINGLE_POINT_ENERGY>  (329) 
0

>  <NONCOV_INTER_ENERGY_QM>  (329) 
0

>  <FF_Energy>  (329) 
10.53

>  <QM_Energy>  (329) 
2.63

>  <source>  (329) 
ETAM_MSM

>  <Index>  (329) 
1850

$$$$
ETAM-pdb1hqs-A-LYS-190:MSM-pdb1hqs-A-MET-225
     RDKit          3D

 20 18  0  0  0  0  0  0  0  0999 V2000
    1.2659    0.8704    0.0000 C   0  0  0  0  0  0  0  0  0  0  0  0
    1.1209    1.6318   -0.6310 H   0  0  0  0  0  0  0  0  0  0  0  0
    2.0292    0.3106   -0.3185 H   0  0  0  0  0  0  0  0  0  0  0  0
    1.5078    1.2701    0.9848 H   0  0  0  0  0  0  0  0  0  0  0  0
    0.0000    0.0000    0.0000 C   0  0  0  0  0  0  0  0  0  0  0  0
    0.0184   -0.5907   -0.8166 H   0  0  0  0  0  0  0  0  0  0  0  0
    0.0187   -0.5908    0.8165 H   0  0  0  0  0  0  0  0  0  0  0  0
   -1.2659    0.7949   -0.0000 N   0  0  0  0  0  4  0  0  0  0  0  0
   -2.0454    0.1714   -0.0360 H   0  0  0  0  0  0  0  0  0  0  0  0
   -1.3102    1.3418    0.8339 H   0  0  0  0  0  0  0  0  0  0  0  0
   -1.2772    1.3950   -0.7980 H   0  0  0  0  0  0  0  0  0  0  0  0
    0.8387   -0.8495   -4.7733 C   0  0  0  0  0  0  0  0  0  0  0  0
    1.7915   -0.4705   -4.7208 H   0  0  0  0  0  0  0  0  0  0  0  0
    0.5984   -0.8409   -5.7724 H   0  0  0  0  0  0  0  0  0  0  0  0
    0.8633   -1.8854   -4.4351 H   0  0  0  0  0  0  0  0  0  0  0  0
   -0.3055    0.1588   -3.8308 S   0  0  0  0  0  0  0  0  0  0  0  0
   -1.7316   -0.0024   -4.7386 C   0  0  0  0  0  0  0  0  0  0  0  0
   -2.5232   -0.2792   -4.1615 H   0  0  0  0  0  0  0  0  0  0  0  0
   -1.9934    0.8678   -5.1969 H   0  0  0  0  0  0  0  0  0  0  0  0
   -1.6423   -0.7042   -5.4701 H   0  0  0  0  0  0  0  0  0  0  0  0
  1  5  1  0
  5  8  1  0
  1  2  1  0
  1  3  1  0
  1  4  1  0
  5  6  1  0
  5  7  1  0
  8  9  1  0
  8 10  1  0
  8 11  1  0
 12 16  1  0
 16 17  1  0
 12 13  1  0
 12 14  1  0
 12 15  1  0
 17 18  1  0
 17 19  1  0
 17 20  1  0
M  CHG  1   8   1
M  END
>  <PDB_ID>  (330) 
pdb1hqs

>  <RESIDUE_NAME>  (330) 
LYS   MET

>  <FRAG_NAME>  (330) 
ETAM   MSM

>  <FRAG_ATOM_NUM>  (330) 
fragi: 11  fragj: 9

>  <atom.prop.CHAIN_ID>  (330) 
A A A A A A A A A A A Z Z Z Z Z Z Z Z Z

>  <atom.prop.IS_HEAVY_ATOM>  (330) 
1 0 0 0 1 0 0 1 0 0 0 1 0 0 0 1 1 0 0 0

>  <DIFUSE_FUNC_ATOM>  (330) 
n/a

>  <FINAL_SINGLE_POINT_ENERGY>  (330) 
0

>  <NONCOV_INTER_ENERGY_QM>  (330) 
0

>  <FF_Energy>  (330) 
-4.92

>  <QM_Energy>  (330) 
-10.25

>  <source>  (330) 
ETAM_MSM

>  <Index>  (330) 
1858

$$$$
ETAM-pdb1ht6-A-LYS-26:MSM-pdb1ht6-A-MET-22
     RDKit          3D

 20 18  0  0  0  0  0  0  0  0999 V2000
    1.2672    0.8863   -0.0000 C   0  0  0  0  0  0  0  0  0  0  0  0
    1.8547    0.5665    0.7403 H   0  0  0  0  0  0  0  0  0  0  0  0
    0.9750    1.8231    0.1779 H   0  0  0  0  0  0  0  0  0  0  0  0
    1.7997    0.8332   -0.9496 H   0  0  0  0  0  0  0  0  0  0  0  0
    0.0000    0.0000    0.0000 C   0  0  0  0  0  0  0  0  0  0  0  0
    0.0413   -0.5986   -0.8165 H   0  0  0  0  0  0  0  0  0  0  0  0
    0.0405   -0.5985    0.8171 H   0  0  0  0  0  0  0  0  0  0  0  0
   -1.2672    0.7544    0.0000 N   0  0  0  0  0  4  0  0  0  0  0  0
   -1.8631    0.4159    0.7315 H   0  0  0  0  0  0  0  0  0  0  0  0
   -1.0818    1.7276    0.1500 H   0  0  0  0  0  0  0  0  0  0  0  0
   -1.7296    0.6391   -0.8815 H   0  0  0  0  0  0  0  0  0  0  0  0
   -1.9297   -0.6533   -4.6985 C   0  0  0  0  0  0  0  0  0  0  0  0
   -2.5384    0.1528   -4.4911 H   0  0  0  0  0  0  0  0  0  0  0  0
   -2.5586   -1.4698   -4.6714 H   0  0  0  0  0  0  0  0  0  0  0  0
   -1.5595   -0.5434   -5.7178 H   0  0  0  0  0  0  0  0  0  0  0  0
   -0.6279   -0.8093   -3.4520 S   0  0  0  0  0  0  0  0  0  0  0  0
    0.2634   -2.1930   -4.0578 C   0  0  0  0  0  0  0  0  0  0  0  0
   -0.3175   -3.0167   -4.0590 H   0  0  0  0  0  0  0  0  0  0  0  0
    0.5784   -2.0269   -5.0005 H   0  0  0  0  0  0  0  0  0  0  0  0
    1.0694   -2.3755   -3.4819 H   0  0  0  0  0  0  0  0  0  0  0  0
  1  5  1  0
  5  8  1  0
  1  2  1  0
  1  3  1  0
  1  4  1  0
  5  6  1  0
  5  7  1  0
  8  9  1  0
  8 10  1  0
  8 11  1  0
 12 16  1  0
 16 17  1  0
 12 13  1  0
 12 14  1  0
 12 15  1  0
 17 18  1  0
 17 19  1  0
 17 20  1  0
M  CHG  1   8   1
M  END
>  <PDB_ID>  (331) 
pdb1ht6

>  <RESIDUE_NAME>  (331) 
LYS   MET

>  <FRAG_NAME>  (331) 
ETAM   MSM

>  <FRAG_ATOM_NUM>  (331) 
fragi: 11  fragj: 9

>  <atom.prop.CHAIN_ID>  (331) 
A A A A A A A A A A A Z Z Z Z Z Z Z Z Z

>  <atom.prop.IS_HEAVY_ATOM>  (331) 
1 0 0 0 1 0 0 1 0 0 0 1 0 0 0 1 1 0 0 0

>  <DIFUSE_FUNC_ATOM>  (331) 
n/a

>  <FINAL_SINGLE_POINT_ENERGY>  (331) 
0

>  <NONCOV_INTER_ENERGY_QM>  (331) 
0

>  <FF_Energy>  (331) 
-4.6

>  <QM_Energy>  (331) 
-11.15

>  <source>  (331) 
ETAM_MSM

>  <Index>  (331) 
1860

$$$$
ETAM-pdb1hvc-A-LYS-20:MSM-pdb1hvc-A-MET-36
     RDKit          3D

 20 18  0  0  0  0  0  0  0  0999 V2000
    1.1944    0.9368    0.0000 C   0  0  0  0  0  0  0  0  0  0  0  0
    1.1329    1.6254   -0.8448 H   0  0  0  0  0  0  0  0  0  0  0  0
    2.1053    0.3541   -0.1417 H   0  0  0  0  0  0  0  0  0  0  0  0
    1.2743    1.4990    0.9303 H   0  0  0  0  0  0  0  0  0  0  0  0
    0.0000    0.0000    0.0000 C   0  0  0  0  0  0  0  0  0  0  0  0
   -0.0044   -0.6355   -0.8847 H   0  0  0  0  0  0  0  0  0  0  0  0
   -0.0032   -0.6533    0.8739 H   0  0  0  0  0  0  0  0  0  0  0  0
   -1.1944    0.8125    0.0000 N   0  0  0  0  0  4  0  0  0  0  0  0
   -1.1920    1.4266   -0.8395 H   0  0  0  0  0  0  0  0  0  0  0  0
   -2.0342    0.1989   -0.0185 H   0  0  0  0  0  0  0  0  0  0  0  0
   -1.2106    1.3986    0.8596 H   0  0  0  0  0  0  0  0  0  0  0  0
   -5.2009    1.9068   -0.0632 C   0  0  0  0  0  0  0  0  0  0  0  0
   -5.1232    2.7357   -0.7691 H   0  0  0  0  0  0  0  0  0  0  0  0
   -6.1930    1.9576    0.3828 H   0  0  0  0  0  0  0  0  0  0  0  0
   -5.0520    0.9500   -0.5635 H   0  0  0  0  0  0  0  0  0  0  0  0
   -3.9691    2.0901    1.2675 S   0  0  0  0  0  0  0  0  0  0  0  0
   -2.9573    3.3622    0.4770 C   0  0  0  0  0  0  0  0  0  0  0  0
   -2.6902    3.0562   -0.5348 H   0  0  0  0  0  0  0  0  0  0  0  0
   -3.5329    4.2837    0.4246 H   0  0  0  0  0  0  0  0  0  0  0  0
   -2.0469    3.5356    1.0480 H   0  0  0  0  0  0  0  0  0  0  0  0
  1  5  1  0
  5  8  1  0
  1  2  1  0
  1  3  1  0
  1  4  1  0
  5  6  1  0
  5  7  1  0
  8  9  1  0
  8 10  1  0
  8 11  1  0
 12 16  1  0
 16 17  1  0
 12 13  1  0
 12 14  1  0
 12 15  1  0
 17 18  1  0
 17 19  1  0
 17 20  1  0
M  CHG  1   8   1
M  END
>  <PDB_ID>  (332) 
pdb1hvc

>  <RESIDUE_NAME>  (332) 
LYS   MET

>  <FRAG_NAME>  (332) 
ETAM   MSM

>  <FRAG_ATOM_NUM>  (332) 
fragi: 11  fragj: 9

>  <atom.prop.CHAIN_ID>  (332) 
A A A A A A A A A A A Z Z Z Z Z Z Z Z Z

>  <atom.prop.IS_HEAVY_ATOM>  (332) 
1 0 0 0 1 0 0 1 0 0 0 1 0 0 0 1 1 0 0 0

>  <DIFUSE_FUNC_ATOM>  (332) 
n/a

>  <FINAL_SINGLE_POINT_ENERGY>  (332) 
0

>  <NONCOV_INTER_ENERGY_QM>  (332) 
0

>  <FF_Energy>  (332) 
-2.28

>  <QM_Energy>  (332) 
-8.65

>  <source>  (332) 
ETAM_MSM

>  <Index>  (332) 
1871

$$$$
ETAM-pdb1hvc-A-LYS-20:MSM-pdb1hvc-A-MET-36
     RDKit          3D

 20 18  0  0  0  0  0  0  0  0999 V2000
    1.2250    0.9049    0.0000 C   0  0  0  0  0  0  0  0  0  0  0  0
    2.1266    0.2924    0.0207 H   0  0  0  0  0  0  0  0  0  0  0  0
    1.2352    1.5061    0.9101 H   0  0  0  0  0  0  0  0  0  0  0  0
    1.2392    1.5578   -0.8727 H   0  0  0  0  0  0  0  0  0  0  0  0
    0.0000    0.0000    0.0000 C   0  0  0  0  0  0  0  0  0  0  0  0
   -0.0052   -0.6545   -0.8701 H   0  0  0  0  0  0  0  0  0  0  0  0
    0.0107   -0.6276    0.8856 H   0  0  0  0  0  0  0  0  0  0  0  0
   -1.2250    0.7933    0.0000 N   0  0  0  0  0  4  0  0  0  0  0  0
   -1.2436    1.4021    0.8438 H   0  0  0  0  0  0  0  0  0  0  0  0
   -1.2538    1.3871   -0.8543 H   0  0  0  0  0  0  0  0  0  0  0  0
   -2.0490    0.1580    0.0121 H   0  0  0  0  0  0  0  0  0  0  0  0
   -1.8257   -3.6019    2.8389 C   0  0  0  0  0  0  0  0  0  0  0  0
   -1.3854   -3.6031    3.8350 H   0  0  0  0  0  0  0  0  0  0  0  0
   -1.9654   -4.6472    2.5663 H   0  0  0  0  0  0  0  0  0  0  0  0
   -2.7825   -3.0798    2.8386 H   0  0  0  0  0  0  0  0  0  0  0  0
   -0.5701   -2.8589    1.7348 S   0  0  0  0  0  0  0  0  0  0  0  0
   -1.5314   -3.0132    0.1934 C   0  0  0  0  0  0  0  0  0  0  0  0
   -1.9820   -4.0017    0.1136 H   0  0  0  0  0  0  0  0  0  0  0  0
   -2.3233   -2.2639    0.1683 H   0  0  0  0  0  0  0  0  0  0  0  0
   -0.8804   -2.8602   -0.6667 H   0  0  0  0  0  0  0  0  0  0  0  0
  1  5  1  0
  5  8  1  0
  1  2  1  0
  1  3  1  0
  1  4  1  0
  5  6  1  0
  5  7  1  0
  8  9  1  0
  8 10  1  0
  8 11  1  0
 12 16  1  0
 16 17  1  0
 12 13  1  0
 12 14  1  0
 12 15  1  0
 17 18  1  0
 17 19  1  0
 17 20  1  0
M  CHG  1   8   1
M  END
>  <PDB_ID>  (333) 
pdb1hvc

>  <RESIDUE_NAME>  (333) 
LYS   MET

>  <FRAG_NAME>  (333) 
ETAM   MSM

>  <FRAG_ATOM_NUM>  (333) 
fragi: 11  fragj: 9

>  <atom.prop.CHAIN_ID>  (333) 
A A A A A A A A A A A Z Z Z Z Z Z Z Z Z

>  <atom.prop.IS_HEAVY_ATOM>  (333) 
1 0 0 0 1 0 0 1 0 0 0 1 0 0 0 1 1 0 0 0

>  <DIFUSE_FUNC_ATOM>  (333) 
n/a

>  <FINAL_SINGLE_POINT_ENERGY>  (333) 
0

>  <NONCOV_INTER_ENERGY_QM>  (333) 
0

>  <FF_Energy>  (333) 
0.8

>  <QM_Energy>  (333) 
-5.74

>  <source>  (333) 
ETAM_MSM

>  <Index>  (333) 
1872

$$$$
ETAM-pdb1hqs-B-LYS-190:MSM-pdb1hqs-B-MET-225
     RDKit          3D

 20 18  0  0  0  0  0  0  0  0999 V2000
    1.2714    0.8334    0.0000 C   0  0  0  0  0  0  0  0  0  0  0  0
    1.1476    1.6035   -0.6268 H   0  0  0  0  0  0  0  0  0  0  0  0
    2.0267    0.2617   -0.3198 H   0  0  0  0  0  0  0  0  0  0  0  0
    1.5215    1.2235    0.9866 H   0  0  0  0  0  0  0  0  0  0  0  0
    0.0000    0.0000    0.0000 C   0  0  0  0  0  0  0  0  0  0  0  0
    0.0015   -0.6011   -0.8157 H   0  0  0  0  0  0  0  0  0  0  0  0
    0.0017   -0.6012    0.8163 H   0  0  0  0  0  0  0  0  0  0  0  0
   -1.2714    0.8008   -0.0000 N   0  0  0  0  0  4  0  0  0  0  0  0
   -1.8018    0.5675    0.8116 H   0  0  0  0  0  0  0  0  0  0  0  0
   -1.0430    1.7718    0.0101 H   0  0  0  0  0  0  0  0  0  0  0  0
   -1.7922    0.5817   -0.8216 H   0  0  0  0  0  0  0  0  0  0  0  0
    0.7898   -0.8155   -4.5506 C   0  0  0  0  0  0  0  0  0  0  0  0
    1.7394   -0.4879   -4.3577 H   0  0  0  0  0  0  0  0  0  0  0  0
    0.6485   -0.6868   -5.5553 H   0  0  0  0  0  0  0  0  0  0  0  0
    0.7465   -1.8828   -4.3335 H   0  0  0  0  0  0  0  0  0  0  0  0
   -0.4228    0.1349   -3.6029 S   0  0  0  0  0  0  0  0  0  0  0  0
   -1.8346   -0.1467   -4.5895 C   0  0  0  0  0  0  0  0  0  0  0  0
   -2.5975    0.4477   -4.3023 H   0  0  0  0  0  0  0  0  0  0  0  0
   -1.6373    0.0438   -5.5611 H   0  0  0  0  0  0  0  0  0  0  0  0
   -2.1398   -1.1061   -4.5142 H   0  0  0  0  0  0  0  0  0  0  0  0
  1  5  1  0
  5  8  1  0
  1  2  1  0
  1  3  1  0
  1  4  1  0
  5  6  1  0
  5  7  1  0
  8  9  1  0
  8 10  1  0
  8 11  1  0
 12 16  1  0
 16 17  1  0
 12 13  1  0
 12 14  1  0
 12 15  1  0
 17 18  1  0
 17 19  1  0
 17 20  1  0
M  CHG  1   8   1
M  END
>  <PDB_ID>  (334) 
pdb1hqs

>  <RESIDUE_NAME>  (334) 
LYS   MET

>  <FRAG_NAME>  (334) 
ETAM   MSM

>  <FRAG_ATOM_NUM>  (334) 
fragi: 11  fragj: 9

>  <atom.prop.CHAIN_ID>  (334) 
A A A A A A A A A A A Z Z Z Z Z Z Z Z Z

>  <atom.prop.IS_HEAVY_ATOM>  (334) 
1 0 0 0 1 0 0 1 0 0 0 1 0 0 0 1 1 0 0 0

>  <DIFUSE_FUNC_ATOM>  (334) 
n/a

>  <FINAL_SINGLE_POINT_ENERGY>  (334) 
0

>  <NONCOV_INTER_ENERGY_QM>  (334) 
0

>  <FF_Energy>  (334) 
-5.26

>  <QM_Energy>  (334) 
-11.52

>  <source>  (334) 
ETAM_MSM

>  <Index>  (334) 
1880

$$$$
ETAM-pdb1hxh-A-LYS-201:MSM-pdb1hxh-A-MET-218
     RDKit          3D

 20 18  0  0  0  0  0  0  0  0999 V2000
    1.2783    0.8204    0.0000 C   0  0  0  0  0  0  0  0  0  0  0  0
    1.8863    0.4586    0.7215 H   0  0  0  0  0  0  0  0  0  0  0  0
    1.0429    1.7724    0.2441 H   0  0  0  0  0  0  0  0  0  0  0  0
    1.8239    0.8264   -0.9436 H   0  0  0  0  0  0  0  0  0  0  0  0
    0.0000    0.0000    0.0000 C   0  0  0  0  0  0  0  0  0  0  0  0
    0.0072   -0.6140   -0.8164 H   0  0  0  0  0  0  0  0  0  0  0  0
    0.0066   -0.6150    0.8159 H   0  0  0  0  0  0  0  0  0  0  0  0
   -1.2783    0.7741    0.0000 N   0  0  0  0  0  4  0  0  0  0  0  0
   -1.0874    1.7242   -0.2409 H   0  0  0  0  0  0  0  0  0  0  0  0
   -1.9035    0.3752   -0.6690 H   0  0  0  0  0  0  0  0  0  0  0  0
   -1.6869    0.7335    0.9099 H   0  0  0  0  0  0  0  0  0  0  0  0
   -3.4596   -0.9638   -2.6991 C   0  0  0  0  0  0  0  0  0  0  0  0
   -3.4281   -0.0919   -3.2623 H   0  0  0  0  0  0  0  0  0  0  0  0
   -3.9320   -0.6724   -1.8210 H   0  0  0  0  0  0  0  0  0  0  0  0
   -4.1152   -1.6672   -3.2125 H   0  0  0  0  0  0  0  0  0  0  0  0
   -1.8030   -1.5684   -2.3632 S   0  0  0  0  0  0  0  0  0  0  0  0
   -2.0417   -2.6553   -0.9564 C   0  0  0  0  0  0  0  0  0  0  0  0
   -1.1537   -2.8817   -0.5543 H   0  0  0  0  0  0  0  0  0  0  0  0
   -2.6094   -2.1962   -0.2713 H   0  0  0  0  0  0  0  0  0  0  0  0
   -2.4949   -3.4956   -1.2561 H   0  0  0  0  0  0  0  0  0  0  0  0
  1  5  1  0
  5  8  1  0
  1  2  1  0
  1  3  1  0
  1  4  1  0
  5  6  1  0
  5  7  1  0
  8  9  1  0
  8 10  1  0
  8 11  1  0
 12 16  1  0
 16 17  1  0
 12 13  1  0
 12 14  1  0
 12 15  1  0
 17 18  1  0
 17 19  1  0
 17 20  1  0
M  CHG  1   8   1
M  END
>  <PDB_ID>  (335) 
pdb1hxh

>  <RESIDUE_NAME>  (335) 
LYS   MET

>  <FRAG_NAME>  (335) 
ETAM   MSM

>  <FRAG_ATOM_NUM>  (335) 
fragi: 11  fragj: 9

>  <atom.prop.CHAIN_ID>  (335) 
A A A A A A A A A A A Z Z Z Z Z Z Z Z Z

>  <atom.prop.IS_HEAVY_ATOM>  (335) 
1 0 0 0 1 0 0 1 0 0 0 1 0 0 0 1 1 0 0 0

>  <DIFUSE_FUNC_ATOM>  (335) 
n/a

>  <FINAL_SINGLE_POINT_ENERGY>  (335) 
0

>  <NONCOV_INTER_ENERGY_QM>  (335) 
0

>  <FF_Energy>  (335) 
-1.95

>  <QM_Energy>  (335) 
-11.3

>  <source>  (335) 
ETAM_MSM

>  <Index>  (335) 
1894

$$$$
ETAM-pdb1hxh-B-LYS-201:MSM-pdb1hxh-B-MET-218
     RDKit          3D

 20 18  0  0  0  0  0  0  0  0999 V2000
    1.2948    0.7817    0.0000 C   0  0  0  0  0  0  0  0  0  0  0  0
    1.5893    0.9140    0.9631 H   0  0  0  0  0  0  0  0  0  0  0  0
    1.1124    1.7035   -0.3843 H   0  0  0  0  0  0  0  0  0  0  0  0
    2.1243    0.3395   -0.5519 H   0  0  0  0  0  0  0  0  0  0  0  0
    0.0000    0.0000    0.0000 C   0  0  0  0  0  0  0  0  0  0  0  0
    0.0007   -0.6347   -0.8157 H   0  0  0  0  0  0  0  0  0  0  0  0
   -0.0002   -0.6348    0.8165 H   0  0  0  0  0  0  0  0  0  0  0  0
   -1.2948    0.7520    0.0000 N   0  0  0  0  0  4  0  0  0  0  0  0
   -1.1882    1.5871   -0.5363 H   0  0  0  0  0  0  0  0  0  0  0  0
   -2.0053    0.1795   -0.4038 H   0  0  0  0  0  0  0  0  0  0  0  0
   -1.5392    0.9820    0.9402 H   0  0  0  0  0  0  0  0  0  0  0  0
   -5.2120   -0.3550   -2.6784 C   0  0  0  0  0  0  0  0  0  0  0  0
   -4.7602   -0.3020   -3.5999 H   0  0  0  0  0  0  0  0  0  0  0  0
   -5.4179    0.6178   -2.4213 H   0  0  0  0  0  0  0  0  0  0  0  0
   -6.1522   -0.8966   -2.7811 H   0  0  0  0  0  0  0  0  0  0  0  0
   -4.0994   -1.1058   -1.4708 S   0  0  0  0  0  0  0  0  0  0  0  0
   -4.9738   -0.7278    0.0057 C   0  0  0  0  0  0  0  0  0  0  0  0
   -5.5537    0.0844   -0.1263 H   0  0  0  0  0  0  0  0  0  0  0  0
   -5.5624   -1.4992    0.2745 H   0  0  0  0  0  0  0  0  0  0  0  0
   -4.3309   -0.5412    0.7581 H   0  0  0  0  0  0  0  0  0  0  0  0
  1  5  1  0
  5  8  1  0
  1  2  1  0
  1  3  1  0
  1  4  1  0
  5  6  1  0
  5  7  1  0
  8  9  1  0
  8 10  1  0
  8 11  1  0
 12 16  1  0
 16 17  1  0
 12 13  1  0
 12 14  1  0
 12 15  1  0
 17 18  1  0
 17 19  1  0
 17 20  1  0
M  CHG  1   8   1
M  END
>  <PDB_ID>  (336) 
pdb1hxh

>  <RESIDUE_NAME>  (336) 
LYS   MET

>  <FRAG_NAME>  (336) 
ETAM   MSM

>  <FRAG_ATOM_NUM>  (336) 
fragi: 11  fragj: 9

>  <atom.prop.CHAIN_ID>  (336) 
A A A A A A A A A A A Z Z Z Z Z Z Z Z Z

>  <atom.prop.IS_HEAVY_ATOM>  (336) 
1 0 0 0 1 0 0 1 0 0 0 1 0 0 0 1 1 0 0 0

>  <DIFUSE_FUNC_ATOM>  (336) 
n/a

>  <FINAL_SINGLE_POINT_ENERGY>  (336) 
0

>  <NONCOV_INTER_ENERGY_QM>  (336) 
0

>  <FF_Energy>  (336) 
-4.35

>  <QM_Energy>  (336) 
-12.66

>  <source>  (336) 
ETAM_MSM

>  <Index>  (336) 
1896

$$$$
ETAM-pdb1hxw-A-LYS-20:MSM-pdb1hxw-A-MET-36
     RDKit          3D

 20 18  0  0  0  0  0  0  0  0999 V2000
    1.2442    0.8706   -0.0000 C   0  0  0  0  0  0  0  0  0  0  0  0
    1.2589    1.3800    0.8131 H   0  0  0  0  0  0  0  0  0  0  0  0
    1.2663    1.3687   -0.8195 H   0  0  0  0  0  0  0  0  0  0  0  0
    2.0295    0.1148    0.0096 H   0  0  0  0  0  0  0  0  0  0  0  0
    0.0000    0.0000    0.0000 C   0  0  0  0  0  0  0  0  0  0  0  0
    0.0338   -0.6022   -0.8167 H   0  0  0  0  0  0  0  0  0  0  0  0
    0.0337   -0.6024    0.8160 H   0  0  0  0  0  0  0  0  0  0  0  0
   -1.2442    0.7586    0.0000 N   0  0  0  0  0  4  0  0  0  0  0  0
   -1.2750    1.3819   -0.8320 H   0  0  0  0  0  0  0  0  0  0  0  0
   -2.0485    0.0939   -0.0536 H   0  0  0  0  0  0  0  0  0  0  0  0
   -1.3255    1.3214    0.8697 H   0  0  0  0  0  0  0  0  0  0  0  0
   -3.2999    3.3875    2.3135 C   0  0  0  0  0  0  0  0  0  0  0  0
   -3.3098    4.2468    1.8402 H   0  0  0  0  0  0  0  0  0  0  0  0
   -3.8161    3.4104    3.1474 H   0  0  0  0  0  0  0  0  0  0  0  0
   -3.6999    2.6112    1.6611 H   0  0  0  0  0  0  0  0  0  0  0  0
   -1.6345    2.8212    2.5960 S   0  0  0  0  0  0  0  0  0  0  0  0
   -1.8794    1.3830    3.6046 C   0  0  0  0  0  0  0  0  0  0  0  0
   -2.8405    1.0954    3.5674 H   0  0  0  0  0  0  0  0  0  0  0  0
   -1.3028    0.6296    3.2762 H   0  0  0  0  0  0  0  0  0  0  0  0
   -1.6373    1.5858    4.5583 H   0  0  0  0  0  0  0  0  0  0  0  0
  1  5  1  0
  5  8  1  0
  1  2  1  0
  1  3  1  0
  1  4  1  0
  5  6  1  0
  5  7  1  0
  8  9  1  0
  8 10  1  0
  8 11  1  0
 12 16  1  0
 16 17  1  0
 12 13  1  0
 12 14  1  0
 12 15  1  0
 17 18  1  0
 17 19  1  0
 17 20  1  0
M  CHG  1   8   1
M  END
>  <PDB_ID>  (337) 
pdb1hxw

>  <RESIDUE_NAME>  (337) 
LYS   MET

>  <FRAG_NAME>  (337) 
ETAM   MSM

>  <FRAG_ATOM_NUM>  (337) 
fragi: 11  fragj: 9

>  <atom.prop.CHAIN_ID>  (337) 
A A A A A A A A A A A Z Z Z Z Z Z Z Z Z

>  <atom.prop.IS_HEAVY_ATOM>  (337) 
1 0 0 0 1 0 0 1 0 0 0 1 0 0 0 1 1 0 0 0

>  <DIFUSE_FUNC_ATOM>  (337) 
n/a

>  <FINAL_SINGLE_POINT_ENERGY>  (337) 
0

>  <NONCOV_INTER_ENERGY_QM>  (337) 
0

>  <FF_Energy>  (337) 
-4.46

>  <QM_Energy>  (337) 
-15.93

>  <source>  (337) 
ETAM_MSM

>  <Index>  (337) 
1903

$$$$
ETAM-pdb1hxw-B-LYS-20:MSM-pdb1hxw-B-MET-36
     RDKit          3D

 20 18  0  0  0  0  0  0  0  0999 V2000
    1.2578    0.9132   -0.0000 C   0  0  0  0  0  0  0  0  0  0  0  0
    1.2833    1.4041    0.8879 H   0  0  0  0  0  0  0  0  0  0  0  0
    1.1318    1.6120   -0.7252 H   0  0  0  0  0  0  0  0  0  0  0  0
    2.2271    0.4383   -0.1510 H   0  0  0  0  0  0  0  0  0  0  0  0
    0.0000    0.0000    0.0000 C   0  0  0  0  0  0  0  0  0  0  0  0
    0.0479   -0.5858   -0.8168 H   0  0  0  0  0  0  0  0  0  0  0  0
    0.0473   -0.5863    0.8166 H   0  0  0  0  0  0  0  0  0  0  0  0
   -1.2578    0.7641   -0.0000 N   0  0  0  0  0  4  0  0  0  0  0  0
   -1.2361    1.4733    0.7609 H   0  0  0  0  0  0  0  0  0  0  0  0
   -1.3586    1.2323   -0.9228 H   0  0  0  0  0  0  0  0  0  0  0  0
   -2.0344    0.0924    0.1574 H   0  0  0  0  0  0  0  0  0  0  0  0
   -3.8068    2.0228    3.1569 C   0  0  0  0  0  0  0  0  0  0  0  0
   -4.3767    2.6223    2.6060 H   0  0  0  0  0  0  0  0  0  0  0  0
   -4.0017    2.1480    4.1233 H   0  0  0  0  0  0  0  0  0  0  0  0
   -3.9700    0.9836    2.8716 H   0  0  0  0  0  0  0  0  0  0  0  0
   -2.0887    2.2891    2.8148 S   0  0  0  0  0  0  0  0  0  0  0  0
   -1.4927    1.6472    4.3634 C   0  0  0  0  0  0  0  0  0  0  0  0
   -0.7124    2.1921    4.6821 H   0  0  0  0  0  0  0  0  0  0  0  0
   -2.2207    1.6857    5.0525 H   0  0  0  0  0  0  0  0  0  0  0  0
   -1.2012    0.6942    4.2485 H   0  0  0  0  0  0  0  0  0  0  0  0
  1  5  1  0
  5  8  1  0
  1  2  1  0
  1  3  1  0
  1  4  1  0
  5  6  1  0
  5  7  1  0
  8  9  1  0
  8 10  1  0
  8 11  1  0
 12 16  1  0
 16 17  1  0
 12 13  1  0
 12 14  1  0
 12 15  1  0
 17 18  1  0
 17 19  1  0
 17 20  1  0
M  CHG  1   8   1
M  END
>  <PDB_ID>  (338) 
pdb1hxw

>  <RESIDUE_NAME>  (338) 
LYS   MET

>  <FRAG_NAME>  (338) 
ETAM   MSM

>  <FRAG_ATOM_NUM>  (338) 
fragi: 11  fragj: 9

>  <atom.prop.CHAIN_ID>  (338) 
A A A A A A A A A A A Z Z Z Z Z Z Z Z Z

>  <atom.prop.IS_HEAVY_ATOM>  (338) 
1 0 0 0 1 0 0 1 0 0 0 1 0 0 0 1 1 0 0 0

>  <DIFUSE_FUNC_ATOM>  (338) 
n/a

>  <FINAL_SINGLE_POINT_ENERGY>  (338) 
0

>  <NONCOV_INTER_ENERGY_QM>  (338) 
0

>  <FF_Energy>  (338) 
-5.28

>  <QM_Energy>  (338) 
-15.18

>  <source>  (338) 
ETAM_MSM

>  <Index>  (338) 
1909

$$$$
ETAM-pdb1i0a-D-LYS-126:MSM-pdb1i0a-D-MET-222
     RDKit          3D

 20 18  0  0  0  0  0  0  0  0999 V2000
    1.2376    0.8770    0.0000 C   0  0  0  0  0  0  0  0  0  0  0  0
    1.2717    1.3806    0.8612 H   0  0  0  0  0  0  0  0  0  0  0  0
    1.1750    1.5171   -0.7634 H   0  0  0  0  0  0  0  0  0  0  0  0
    2.1547    0.2969   -0.1026 H   0  0  0  0  0  0  0  0  0  0  0  0
    0.0000    0.0000    0.0000 C   0  0  0  0  0  0  0  0  0  0  0  0
    0.0090   -0.5771   -0.8160 H   0  0  0  0  0  0  0  0  0  0  0  0
    0.0078   -0.5770    0.8161 H   0  0  0  0  0  0  0  0  0  0  0  0
   -1.2376    0.8290   -0.0000 N   0  0  0  0  0  4  0  0  0  0  0  0
   -1.2673    1.3791    0.8345 H   0  0  0  0  0  0  0  0  0  0  0  0
   -1.2332    1.4308   -0.7978 H   0  0  0  0  0  0  0  0  0  0  0  0
   -2.0367    0.2305   -0.0362 H   0  0  0  0  0  0  0  0  0  0  0  0
   -0.8283    4.3574    4.3875 C   0  0  0  0  0  0  0  0  0  0  0  0
   -1.4581    4.3430    3.5701 H   0  0  0  0  0  0  0  0  0  0  0  0
   -0.8369    5.3396    4.7047 H   0  0  0  0  0  0  0  0  0  0  0  0
   -1.2709    3.7410    5.1699 H   0  0  0  0  0  0  0  0  0  0  0  0
    0.8489    3.8617    3.9048 S   0  0  0  0  0  0  0  0  0  0  0  0
    0.4714    2.7963    2.5504 C   0  0  0  0  0  0  0  0  0  0  0  0
    1.3177    2.4560    2.1280 H   0  0  0  0  0  0  0  0  0  0  0  0
   -0.0696    2.0097    2.8655 H   0  0  0  0  0  0  0  0  0  0  0  0
   -0.0582    3.2908    1.8538 H   0  0  0  0  0  0  0  0  0  0  0  0
  1  5  1  0
  5  8  1  0
  1  2  1  0
  1  3  1  0
  1  4  1  0
  5  6  1  0
  5  7  1  0
  8  9  1  0
  8 10  1  0
  8 11  1  0
 12 16  1  0
 16 17  1  0
 12 13  1  0
 12 14  1  0
 12 15  1  0
 17 18  1  0
 17 19  1  0
 17 20  1  0
M  CHG  1   8   1
M  END
>  <PDB_ID>  (339) 
pdb1i0a

>  <RESIDUE_NAME>  (339) 
LYS   MET

>  <FRAG_NAME>  (339) 
ETAM   MSM

>  <FRAG_ATOM_NUM>  (339) 
fragi: 11  fragj: 9

>  <atom.prop.CHAIN_ID>  (339) 
A A A A A A A A A A A Z Z Z Z Z Z Z Z Z

>  <atom.prop.IS_HEAVY_ATOM>  (339) 
1 0 0 0 1 0 0 1 0 0 0 1 0 0 0 1 1 0 0 0

>  <DIFUSE_FUNC_ATOM>  (339) 
n/a

>  <FINAL_SINGLE_POINT_ENERGY>  (339) 
0

>  <NONCOV_INTER_ENERGY_QM>  (339) 
0

>  <FF_Energy>  (339) 
11.39

>  <QM_Energy>  (339) 
2.72

>  <source>  (339) 
ETAM_MSM

>  <Index>  (339) 
1925

$$$$
ETAM-pdb1hzd-A-LYS-234:MSM-pdb1hzd-A-MET-230
     RDKit          3D

 20 18  0  0  0  0  0  0  0  0999 V2000
    1.2415    0.8914   -0.0000 C   0  0  0  0  0  0  0  0  0  0  0  0
    1.1514    1.5535    0.7419 H   0  0  0  0  0  0  0  0  0  0  0  0
    1.2834    1.3688   -0.8750 H   0  0  0  0  0  0  0  0  0  0  0  0
    2.1611    0.3232    0.1402 H   0  0  0  0  0  0  0  0  0  0  0  0
    0.0000    0.0000    0.0000 C   0  0  0  0  0  0  0  0  0  0  0  0
    0.0128   -0.5714   -0.8166 H   0  0  0  0  0  0  0  0  0  0  0  0
    0.0118   -0.5708    0.8162 H   0  0  0  0  0  0  0  0  0  0  0  0
   -1.2415    0.8329    0.0000 N   0  0  0  0  0  4  0  0  0  0  0  0
   -1.8281    0.5472    0.7553 H   0  0  0  0  0  0  0  0  0  0  0  0
   -0.9926    1.7929    0.1112 H   0  0  0  0  0  0  0  0  0  0  0  0
   -1.7208    0.7070   -0.8661 H   0  0  0  0  0  0  0  0  0  0  0  0
   -0.4757   -0.9955    3.2198 C   0  0  0  0  0  0  0  0  0  0  0  0
   -0.0553   -0.2475    2.6594 H   0  0  0  0  0  0  0  0  0  0  0  0
   -0.0208   -1.8605    2.9104 H   0  0  0  0  0  0  0  0  0  0  0  0
   -0.2389   -0.8268    4.2704 H   0  0  0  0  0  0  0  0  0  0  0  0
   -2.2507   -1.0780    2.9326 S   0  0  0  0  0  0  0  0  0  0  0  0
   -2.4511   -2.7987    2.6902 C   0  0  0  0  0  0  0  0  0  0  0  0
   -3.1566   -3.1669    3.3096 H   0  0  0  0  0  0  0  0  0  0  0  0
   -2.7316   -2.9948    1.7421 H   0  0  0  0  0  0  0  0  0  0  0  0
   -1.5881   -3.2875    2.8707 H   0  0  0  0  0  0  0  0  0  0  0  0
  1  5  1  0
  5  8  1  0
  1  2  1  0
  1  3  1  0
  1  4  1  0
  5  6  1  0
  5  7  1  0
  8  9  1  0
  8 10  1  0
  8 11  1  0
 12 16  1  0
 16 17  1  0
 12 13  1  0
 12 14  1  0
 12 15  1  0
 17 18  1  0
 17 19  1  0
 17 20  1  0
M  CHG  1   8   1
M  END
>  <PDB_ID>  (340) 
pdb1hzd

>  <RESIDUE_NAME>  (340) 
LYS   MET

>  <FRAG_NAME>  (340) 
ETAM   MSM

>  <FRAG_ATOM_NUM>  (340) 
fragi: 11  fragj: 9

>  <atom.prop.CHAIN_ID>  (340) 
A A A A A A A A A A A Z Z Z Z Z Z Z Z Z

>  <atom.prop.IS_HEAVY_ATOM>  (340) 
1 0 0 0 1 0 0 1 0 0 0 1 0 0 0 1 1 0 0 0

>  <DIFUSE_FUNC_ATOM>  (340) 
n/a

>  <FINAL_SINGLE_POINT_ENERGY>  (340) 
0

>  <NONCOV_INTER_ENERGY_QM>  (340) 
0

>  <FF_Energy>  (340) 
-0.84

>  <QM_Energy>  (340) 
-10.91

>  <source>  (340) 
ETAM_MSM

>  <Index>  (340) 
1926

$$$$
ETAM-pdb1hfb-H-LYS-201:MSM-pdb1hfb-H-MET-314
     RDKit          3D

 20 18  0  0  0  0  0  0  0  0999 V2000
    1.2129    0.9029    0.0000 C   0  0  0  0  0  0  0  0  0  0  0  0
    1.1989    1.4487    0.8349 H   0  0  0  0  0  0  0  0  0  0  0  0
    1.1604    1.4990   -0.7972 H   0  0  0  0  0  0  0  0  0  0  0  0
    2.1342    0.3217   -0.0387 H   0  0  0  0  0  0  0  0  0  0  0  0
    0.0000    0.0000    0.0000 C   0  0  0  0  0  0  0  0  0  0  0  0
    0.0110   -0.5617   -0.8157 H   0  0  0  0  0  0  0  0  0  0  0  0
    0.0098   -0.5615    0.8167 H   0  0  0  0  0  0  0  0  0  0  0  0
   -1.2129    0.8502   -0.0000 N   0  0  0  0  0  4  0  0  0  0  0  0
   -1.4173    1.1420   -0.9351 H   0  0  0  0  0  0  0  0  0  0  0  0
   -1.9873    0.3298    0.3621 H   0  0  0  0  0  0  0  0  0  0  0  0
   -1.0575    1.6557    0.5728 H   0  0  0  0  0  0  0  0  0  0  0  0
   -4.6286   -2.4215    2.2608 C   0  0  0  0  0  0  0  0  0  0  0  0
   -5.3916   -1.7836    2.0031 H   0  0  0  0  0  0  0  0  0  0  0  0
   -4.8816   -2.7850    3.1881 H   0  0  0  0  0  0  0  0  0  0  0  0
   -4.6224   -3.2523    1.5552 H   0  0  0  0  0  0  0  0  0  0  0  0
   -3.0516   -1.5299    2.3351 S   0  0  0  0  0  0  0  0  0  0  0  0
   -2.0582   -2.6313    3.3335 C   0  0  0  0  0  0  0  0  0  0  0  0
   -1.6588   -3.3436    2.7539 H   0  0  0  0  0  0  0  0  0  0  0  0
   -1.3226   -2.1148    3.7763 H   0  0  0  0  0  0  0  0  0  0  0  0
   -2.6306   -3.0586    4.0356 H   0  0  0  0  0  0  0  0  0  0  0  0
  1  5  1  0
  5  8  1  0
  1  2  1  0
  1  3  1  0
  1  4  1  0
  5  6  1  0
  5  7  1  0
  8  9  1  0
  8 10  1  0
  8 11  1  0
 12 16  1  0
 16 17  1  0
 12 13  1  0
 12 14  1  0
 12 15  1  0
 17 18  1  0
 17 19  1  0
 17 20  1  0
M  CHG  1   8   1
M  END
>  <PDB_ID>  (341) 
pdb1hfb

>  <RESIDUE_NAME>  (341) 
LYS   MET

>  <FRAG_NAME>  (341) 
ETAM   MSM

>  <FRAG_ATOM_NUM>  (341) 
fragi: 11  fragj: 9

>  <atom.prop.CHAIN_ID>  (341) 
A A A A A A A A A A A Z Z Z Z Z Z Z Z Z

>  <atom.prop.IS_HEAVY_ATOM>  (341) 
1 0 0 0 1 0 0 1 0 0 0 1 0 0 0 1 1 0 0 0

>  <DIFUSE_FUNC_ATOM>  (341) 
n/a

>  <FINAL_SINGLE_POINT_ENERGY>  (341) 
0

>  <NONCOV_INTER_ENERGY_QM>  (341) 
0

>  <FF_Energy>  (341) 
-5.15

>  <QM_Energy>  (341) 
-12.2

>  <source>  (341) 
ETAM_MSM

>  <Index>  (341) 
1927

$$$$
ETAM-pdb1hr6-D-LYS-113:MSM-pdb1hr6-C-MET-380
     RDKit          3D

 20 18  0  0  0  0  0  0  0  0999 V2000
    1.2963    0.8702   -0.0000 C   0  0  0  0  0  0  0  0  0  0  0  0
    1.3636    1.3196   -0.8837 H   0  0  0  0  0  0  0  0  0  0  0  0
    2.0710    0.2657    0.1433 H   0  0  0  0  0  0  0  0  0  0  0  0
    1.2974    1.6318    0.7798 H   0  0  0  0  0  0  0  0  0  0  0  0
    0.0000    0.0000    0.0000 C   0  0  0  0  0  0  0  0  0  0  0  0
    0.0146   -0.5881   -0.8161 H   0  0  0  0  0  0  0  0  0  0  0  0
    0.0145   -0.5884    0.8160 H   0  0  0  0  0  0  0  0  0  0  0  0
   -1.2963    0.8033    0.0000 N   0  0  0  0  0  4  0  0  0  0  0  0
   -1.9017    0.4200   -0.6882 H   0  0  0  0  0  0  0  0  0  0  0  0
   -1.7069    0.7361    0.9021 H   0  0  0  0  0  0  0  0  0  0  0  0
   -1.0793    1.7486   -0.2142 H   0  0  0  0  0  0  0  0  0  0  0  0
   -3.0589   -1.8650    3.1571 C   0  0  0  0  0  0  0  0  0  0  0  0
   -3.3963   -0.8880    3.0766 H   0  0  0  0  0  0  0  0  0  0  0  0
   -3.4797   -2.2013    4.0431 H   0  0  0  0  0  0  0  0  0  0  0  0
   -3.4631   -2.4477    2.3293 H   0  0  0  0  0  0  0  0  0  0  0  0
   -1.1873   -1.8472    3.3419 S   0  0  0  0  0  0  0  0  0  0  0  0
   -1.0988   -1.0001    4.9193 C   0  0  0  0  0  0  0  0  0  0  0  0
   -1.2688   -1.6519    5.6595 H   0  0  0  0  0  0  0  0  0  0  0  0
   -0.1888   -0.5982    5.0335 H   0  0  0  0  0  0  0  0  0  0  0  0
   -1.7880   -0.2746    4.9496 H   0  0  0  0  0  0  0  0  0  0  0  0
  1  5  1  0
  5  8  1  0
  1  2  1  0
  1  3  1  0
  1  4  1  0
  5  6  1  0
  5  7  1  0
  8  9  1  0
  8 10  1  0
  8 11  1  0
 12 16  1  0
 16 17  1  0
 12 13  1  0
 12 14  1  0
 12 15  1  0
 17 18  1  0
 17 19  1  0
 17 20  1  0
M  CHG  1   8   1
M  END
>  <PDB_ID>  (342) 
pdb1hr6

>  <RESIDUE_NAME>  (342) 
LYS   MET

>  <FRAG_NAME>  (342) 
ETAM   MSM

>  <FRAG_ATOM_NUM>  (342) 
fragi: 11  fragj: 9

>  <atom.prop.CHAIN_ID>  (342) 
A A A A A A A A A A A Z Z Z Z Z Z Z Z Z

>  <atom.prop.IS_HEAVY_ATOM>  (342) 
1 0 0 0 1 0 0 1 0 0 0 1 0 0 0 1 1 0 0 0

>  <DIFUSE_FUNC_ATOM>  (342) 
n/a

>  <FINAL_SINGLE_POINT_ENERGY>  (342) 
0

>  <NONCOV_INTER_ENERGY_QM>  (342) 
0

>  <FF_Energy>  (342) 
-3.43

>  <QM_Energy>  (342) 
-8.61

>  <source>  (342) 
ETAM_MSM

>  <Index>  (342) 
1929

$$$$
ETAM-pdb1i10-C-LYS-58:MSM-pdb1i10-C-MET-62
     RDKit          3D

 20 18  0  0  0  0  0  0  0  0999 V2000
    1.2469    0.8799    0.0000 C   0  0  0  0  0  0  0  0  0  0  0  0
    2.0377    0.3144    0.2343 H   0  0  0  0  0  0  0  0  0  0  0  0
    1.1329    1.5963    0.6879 H   0  0  0  0  0  0  0  0  0  0  0  0
    1.4407    1.3563   -0.9611 H   0  0  0  0  0  0  0  0  0  0  0  0
    0.0000    0.0000    0.0000 C   0  0  0  0  0  0  0  0  0  0  0  0
    0.0133   -0.5799   -0.8159 H   0  0  0  0  0  0  0  0  0  0  0  0
    0.0126   -0.5796    0.8161 H   0  0  0  0  0  0  0  0  0  0  0  0
   -1.2469    0.8190   -0.0000 N   0  0  0  0  0  4  0  0  0  0  0  0
   -1.4864    1.0550    0.9405 H   0  0  0  0  0  0  0  0  0  0  0  0
   -1.0933    1.6537   -0.5269 H   0  0  0  0  0  0  0  0  0  0  0  0
   -1.9875    0.2915   -0.4134 H   0  0  0  0  0  0  0  0  0  0  0  0
   -1.2929    2.9385   -4.3342 C   0  0  0  0  0  0  0  0  0  0  0  0
   -1.7743    2.1495   -4.7887 H   0  0  0  0  0  0  0  0  0  0  0  0
   -0.2912    2.7040   -4.3914 H   0  0  0  0  0  0  0  0  0  0  0  0
   -1.4730    3.8381   -4.9229 H   0  0  0  0  0  0  0  0  0  0  0  0
   -1.8092    3.0715   -2.5893 S   0  0  0  0  0  0  0  0  0  0  0  0
   -3.5044    3.6235   -2.7849 C   0  0  0  0  0  0  0  0  0  0  0  0
   -4.0694    3.2333   -2.0572 H   0  0  0  0  0  0  0  0  0  0  0  0
   -3.5396    4.6221   -2.7338 H   0  0  0  0  0  0  0  0  0  0  0  0
   -3.8534    3.3232   -3.6737 H   0  0  0  0  0  0  0  0  0  0  0  0
  1  5  1  0
  5  8  1  0
  1  2  1  0
  1  3  1  0
  1  4  1  0
  5  6  1  0
  5  7  1  0
  8  9  1  0
  8 10  1  0
  8 11  1  0
 12 16  1  0
 16 17  1  0
 12 13  1  0
 12 14  1  0
 12 15  1  0
 17 18  1  0
 17 19  1  0
 17 20  1  0
M  CHG  1   8   1
M  END
>  <PDB_ID>  (343) 
pdb1i10

>  <RESIDUE_NAME>  (343) 
LYS   MET

>  <FRAG_NAME>  (343) 
ETAM   MSM

>  <FRAG_ATOM_NUM>  (343) 
fragi: 11  fragj: 9

>  <atom.prop.CHAIN_ID>  (343) 
A A A A A A A A A A A Z Z Z Z Z Z Z Z Z

>  <atom.prop.IS_HEAVY_ATOM>  (343) 
1 0 0 0 1 0 0 1 0 0 0 1 0 0 0 1 1 0 0 0

>  <DIFUSE_FUNC_ATOM>  (343) 
n/a

>  <FINAL_SINGLE_POINT_ENERGY>  (343) 
0

>  <NONCOV_INTER_ENERGY_QM>  (343) 
0

>  <FF_Energy>  (343) 
-5.53

>  <QM_Energy>  (343) 
-13.68

>  <source>  (343) 
ETAM_MSM

>  <Index>  (343) 
1931

$$$$
ETAM-pdb1i1r-A-LYS-234:MSM-pdb1i1r-A-MET-280
     RDKit          3D

 20 18  0  0  0  0  0  0  0  0999 V2000
    1.2147    0.8950    0.0000 C   0  0  0  0  0  0  0  0  0  0  0  0
    1.0332    1.6854    0.5818 H   0  0  0  0  0  0  0  0  0  0  0  0
    1.3936    1.1961   -0.9349 H   0  0  0  0  0  0  0  0  0  0  0  0
    2.0993    0.3818    0.3771 H   0  0  0  0  0  0  0  0  0  0  0  0
    0.0000    0.0000    0.0000 C   0  0  0  0  0  0  0  0  0  0  0  0
    0.0062   -0.5635   -0.8163 H   0  0  0  0  0  0  0  0  0  0  0  0
    0.0055   -0.5627    0.8162 H   0  0  0  0  0  0  0  0  0  0  0  0
   -1.2147    0.8538    0.0000 N   0  0  0  0  0  4  0  0  0  0  0  0
   -1.4019    1.1671    0.9311 H   0  0  0  0  0  0  0  0  0  0  0  0
   -1.0663    1.6435   -0.5951 H   0  0  0  0  0  0  0  0  0  0  0  0
   -1.9944    0.3243   -0.3357 H   0  0  0  0  0  0  0  0  0  0  0  0
   -0.9794   -3.5765   -0.1679 C   0  0  0  0  0  0  0  0  0  0  0  0
   -0.5407   -3.3405    0.7206 H   0  0  0  0  0  0  0  0  0  0  0  0
   -0.4413   -3.1041   -0.8923 H   0  0  0  0  0  0  0  0  0  0  0  0
   -0.9103   -4.6534   -0.3210 H   0  0  0  0  0  0  0  0  0  0  0  0
   -2.7058   -3.0122   -0.1917 S   0  0  0  0  0  0  0  0  0  0  0  0
   -3.1928   -3.5499   -1.8828 C   0  0  0  0  0  0  0  0  0  0  0  0
   -3.2461   -4.5419   -1.8908 H   0  0  0  0  0  0  0  0  0  0  0  0
   -4.0769   -3.1501   -2.0946 H   0  0  0  0  0  0  0  0  0  0  0  0
   -2.5021   -3.2306   -2.5215 H   0  0  0  0  0  0  0  0  0  0  0  0
  1  5  1  0
  5  8  1  0
  1  2  1  0
  1  3  1  0
  1  4  1  0
  5  6  1  0
  5  7  1  0
  8  9  1  0
  8 10  1  0
  8 11  1  0
 12 16  1  0
 16 17  1  0
 12 13  1  0
 12 14  1  0
 12 15  1  0
 17 18  1  0
 17 19  1  0
 17 20  1  0
M  CHG  1   8   1
M  END
>  <PDB_ID>  (344) 
pdb1i1r

>  <RESIDUE_NAME>  (344) 
LYS   MET

>  <FRAG_NAME>  (344) 
ETAM   MSM

>  <FRAG_ATOM_NUM>  (344) 
fragi: 11  fragj: 9

>  <atom.prop.CHAIN_ID>  (344) 
A A A A A A A A A A A Z Z Z Z Z Z Z Z Z

>  <atom.prop.IS_HEAVY_ATOM>  (344) 
1 0 0 0 1 0 0 1 0 0 0 1 0 0 0 1 1 0 0 0

>  <DIFUSE_FUNC_ATOM>  (344) 
n/a

>  <FINAL_SINGLE_POINT_ENERGY>  (344) 
0

>  <NONCOV_INTER_ENERGY_QM>  (344) 
0

>  <FF_Energy>  (344) 
-3.55

>  <QM_Energy>  (344) 
-8.77

>  <source>  (344) 
ETAM_MSM

>  <Index>  (344) 
1932

$$$$
ETAM-pdb1i2t-A-LYS-1031:MSM-pdb1i2t-A-MET-1035
     RDKit          3D

 20 18  0  0  0  0  0  0  0  0999 V2000
    1.2604    0.8495    0.0000 C   0  0  0  0  0  0  0  0  0  0  0  0
    1.0682    1.6980   -0.4426 H   0  0  0  0  0  0  0  0  0  0  0  0
    1.9802    0.3431   -0.4204 H   0  0  0  0  0  0  0  0  0  0  0  0
    1.5094    1.0345    1.0449 H   0  0  0  0  0  0  0  0  0  0  0  0
    0.0000    0.0000    0.0000 C   0  0  0  0  0  0  0  0  0  0  0  0
    0.0114   -0.5979   -0.8163 H   0  0  0  0  0  0  0  0  0  0  0  0
    0.0106   -0.5984    0.8160 H   0  0  0  0  0  0  0  0  0  0  0  0
   -1.2604    0.7931   -0.0000 N   0  0  0  0  0  4  0  0  0  0  0  0
   -1.9984    0.2422    0.3882 H   0  0  0  0  0  0  0  0  0  0  0  0
   -1.1328    1.6178    0.5492 H   0  0  0  0  0  0  0  0  0  0  0  0
   -1.4911    1.0475   -0.9388 H   0  0  0  0  0  0  0  0  0  0  0  0
   -1.7079    4.2809    0.0194 C   0  0  0  0  0  0  0  0  0  0  0  0
   -2.4302    3.9194   -0.6399 H   0  0  0  0  0  0  0  0  0  0  0  0
   -0.8119    4.0119   -0.4415 H   0  0  0  0  0  0  0  0  0  0  0  0
   -1.7750    5.3683    0.0537 H   0  0  0  0  0  0  0  0  0  0  0  0
   -1.8531    3.3533    1.6406 S   0  0  0  0  0  0  0  0  0  0  0  0
   -3.6442    3.6935    1.9503 C   0  0  0  0  0  0  0  0  0  0  0  0
   -3.9609    4.3270    1.2556 H   0  0  0  0  0  0  0  0  0  0  0  0
   -4.1343    2.8327    1.8938 H   0  0  0  0  0  0  0  0  0  0  0  0
   -3.7291    4.0903    2.8551 H   0  0  0  0  0  0  0  0  0  0  0  0
  1  5  1  0
  5  8  1  0
  1  2  1  0
  1  3  1  0
  1  4  1  0
  5  6  1  0
  5  7  1  0
  8  9  1  0
  8 10  1  0
  8 11  1  0
 12 16  1  0
 16 17  1  0
 12 13  1  0
 12 14  1  0
 12 15  1  0
 17 18  1  0
 17 19  1  0
 17 20  1  0
M  CHG  1   8   1
M  END
>  <PDB_ID>  (345) 
pdb1i2t

>  <RESIDUE_NAME>  (345) 
LYS   MET

>  <FRAG_NAME>  (345) 
ETAM   MSM

>  <FRAG_ATOM_NUM>  (345) 
fragi: 11  fragj: 9

>  <atom.prop.CHAIN_ID>  (345) 
A A A A A A A A A A A Z Z Z Z Z Z Z Z Z

>  <atom.prop.IS_HEAVY_ATOM>  (345) 
1 0 0 0 1 0 0 1 0 0 0 1 0 0 0 1 1 0 0 0

>  <DIFUSE_FUNC_ATOM>  (345) 
n/a

>  <FINAL_SINGLE_POINT_ENERGY>  (345) 
0

>  <NONCOV_INTER_ENERGY_QM>  (345) 
0

>  <FF_Energy>  (345) 
-3.94

>  <QM_Energy>  (345) 
-13.33

>  <source>  (345) 
ETAM_MSM

>  <Index>  (345) 
1933

$$$$
ETAM-pdb1hzd-B-LYS-234:MSM-pdb1hzd-B-MET-230
     RDKit          3D

 20 18  0  0  0  0  0  0  0  0999 V2000
    1.2281    0.8936    0.0000 C   0  0  0  0  0  0  0  0  0  0  0  0
    1.1421    1.5528    0.7470 H   0  0  0  0  0  0  0  0  0  0  0  0
    1.2667    1.3804   -0.8722 H   0  0  0  0  0  0  0  0  0  0  0  0
    2.1542    0.3341    0.1316 H   0  0  0  0  0  0  0  0  0  0  0  0
    0.0000    0.0000    0.0000 C   0  0  0  0  0  0  0  0  0  0  0  0
    0.0039   -0.5626   -0.8162 H   0  0  0  0  0  0  0  0  0  0  0  0
    0.0043   -0.5629    0.8165 H   0  0  0  0  0  0  0  0  0  0  0  0
   -1.2281    0.8561   -0.0000 N   0  0  0  0  0  4  0  0  0  0  0  0
   -1.0448    1.6913    0.5148 H   0  0  0  0  0  0  0  0  0  0  0  0
   -1.4672    1.0847   -0.9413 H   0  0  0  0  0  0  0  0  0  0  0  0
   -1.9774    0.3535    0.4264 H   0  0  0  0  0  0  0  0  0  0  0  0
   -0.1735    0.0253    3.4476 C   0  0  0  0  0  0  0  0  0  0  0  0
    0.2554    0.6113    2.7365 H   0  0  0  0  0  0  0  0  0  0  0  0
    0.2207   -0.9051    3.3395 H   0  0  0  0  0  0  0  0  0  0  0  0
    0.0849    0.4120    4.4334 H   0  0  0  0  0  0  0  0  0  0  0  0
   -1.9632   -0.0170    3.2399 S   0  0  0  0  0  0  0  0  0  0  0  0
   -2.2628   -1.6434    3.8022 C   0  0  0  0  0  0  0  0  0  0  0  0
   -1.9685   -1.7504    4.7606 H   0  0  0  0  0  0  0  0  0  0  0  0
   -3.2455   -1.8653    3.7492 H   0  0  0  0  0  0  0  0  0  0  0  0
   -1.7590   -2.3138    3.2421 H   0  0  0  0  0  0  0  0  0  0  0  0
  1  5  1  0
  5  8  1  0
  1  2  1  0
  1  3  1  0
  1  4  1  0
  5  6  1  0
  5  7  1  0
  8  9  1  0
  8 10  1  0
  8 11  1  0
 12 16  1  0
 16 17  1  0
 12 13  1  0
 12 14  1  0
 12 15  1  0
 17 18  1  0
 17 19  1  0
 17 20  1  0
M  CHG  1   8   1
M  END
>  <PDB_ID>  (346) 
pdb1hzd

>  <RESIDUE_NAME>  (346) 
LYS   MET

>  <FRAG_NAME>  (346) 
ETAM   MSM

>  <FRAG_ATOM_NUM>  (346) 
fragi: 11  fragj: 9

>  <atom.prop.CHAIN_ID>  (346) 
A A A A A A A A A A A Z Z Z Z Z Z Z Z Z

>  <atom.prop.IS_HEAVY_ATOM>  (346) 
1 0 0 0 1 0 0 1 0 0 0 1 0 0 0 1 1 0 0 0

>  <DIFUSE_FUNC_ATOM>  (346) 
n/a

>  <FINAL_SINGLE_POINT_ENERGY>  (346) 
0

>  <NONCOV_INTER_ENERGY_QM>  (346) 
0

>  <FF_Energy>  (346) 
-3.97

>  <QM_Energy>  (346) 
-12.02

>  <source>  (346) 
ETAM_MSM

>  <Index>  (346) 
1934

$$$$
ETAM-pdb1i36-B-LYS-167:MSM-pdb1i36-B-MET-223
     RDKit          3D

 20 18  0  0  0  0  0  0  0  0999 V2000
    1.2245    0.8890    0.0000 C   0  0  0  0  0  0  0  0  0  0  0  0
    2.0271    0.3321    0.1845 H   0  0  0  0  0  0  0  0  0  0  0  0
    1.1163    1.5860    0.6999 H   0  0  0  0  0  0  0  0  0  0  0  0
    1.3566    1.3803   -0.9640 H   0  0  0  0  0  0  0  0  0  0  0  0
    0.0000    0.0000    0.0000 C   0  0  0  0  0  0  0  0  0  0  0  0
    0.0047   -0.5659   -0.8160 H   0  0  0  0  0  0  0  0  0  0  0  0
    0.0045   -0.5659    0.8163 H   0  0  0  0  0  0  0  0  0  0  0  0
   -1.2245    0.8502   -0.0000 N   0  0  0  0  0  4  0  0  0  0  0  0
   -1.4187    1.1495    0.9337 H   0  0  0  0  0  0  0  0  0  0  0  0
   -1.0738    1.6467   -0.5836 H   0  0  0  0  0  0  0  0  0  0  0  0
   -1.9954    0.3188   -0.3498 H   0  0  0  0  0  0  0  0  0  0  0  0
    2.3944   -3.1212    0.6980 C   0  0  0  0  0  0  0  0  0  0  0  0
    2.4768   -2.2595    1.2623 H   0  0  0  0  0  0  0  0  0  0  0  0
    3.3595   -3.3159    0.3851 H   0  0  0  0  0  0  0  0  0  0  0  0
    2.0787   -3.9308    1.3561 H   0  0  0  0  0  0  0  0  0  0  0  0
    1.3098   -2.8570   -0.7121 S   0  0  0  0  0  0  0  0  0  0  0  0
    1.1072   -4.4630   -1.3292 C   0  0  0  0  0  0  0  0  0  0  0  0
    0.4182   -4.4859   -2.0692 H   0  0  0  0  0  0  0  0  0  0  0  0
    1.9749   -4.8217   -1.7056 H   0  0  0  0  0  0  0  0  0  0  0  0
    0.8011   -5.0973   -0.6039 H   0  0  0  0  0  0  0  0  0  0  0  0
  1  5  1  0
  5  8  1  0
  1  2  1  0
  1  3  1  0
  1  4  1  0
  5  6  1  0
  5  7  1  0
  8  9  1  0
  8 10  1  0
  8 11  1  0
 12 16  1  0
 16 17  1  0
 12 13  1  0
 12 14  1  0
 12 15  1  0
 17 18  1  0
 17 19  1  0
 17 20  1  0
M  CHG  1   8   1
M  END
>  <PDB_ID>  (347) 
pdb1i36

>  <RESIDUE_NAME>  (347) 
LYS   MET

>  <FRAG_NAME>  (347) 
ETAM   MSM

>  <FRAG_ATOM_NUM>  (347) 
fragi: 11  fragj: 9

>  <atom.prop.CHAIN_ID>  (347) 
A A A A A A A A A A A Z Z Z Z Z Z Z Z Z

>  <atom.prop.IS_HEAVY_ATOM>  (347) 
1 0 0 0 1 0 0 1 0 0 0 1 0 0 0 1 1 0 0 0

>  <DIFUSE_FUNC_ATOM>  (347) 
n/a

>  <FINAL_SINGLE_POINT_ENERGY>  (347) 
0

>  <NONCOV_INTER_ENERGY_QM>  (347) 
0

>  <FF_Energy>  (347) 
-2.42

>  <QM_Energy>  (347) 
-7.5

>  <source>  (347) 
ETAM_MSM

>  <Index>  (347) 
1936

$$$$
ETAM-pdb1hzd-C-LYS-234:MSM-pdb1hzd-C-MET-230
     RDKit          3D

 20 18  0  0  0  0  0  0  0  0999 V2000
    1.2283    0.8926    0.0000 C   0  0  0  0  0  0  0  0  0  0  0  0
    1.1703    1.5128    0.7755 H   0  0  0  0  0  0  0  0  0  0  0  0
    1.2482    1.4052   -0.8528 H   0  0  0  0  0  0  0  0  0  0  0  0
    2.1450    0.3088    0.0834 H   0  0  0  0  0  0  0  0  0  0  0  0
    0.0000    0.0000    0.0000 C   0  0  0  0  0  0  0  0  0  0  0  0
    0.0133   -0.5709   -0.8160 H   0  0  0  0  0  0  0  0  0  0  0  0
    0.0131   -0.5710    0.8166 H   0  0  0  0  0  0  0  0  0  0  0  0
   -1.2283    0.8328    0.0000 N   0  0  0  0  0  4  0  0  0  0  0  0
   -1.1522    1.5406    0.7027 H   0  0  0  0  0  0  0  0  0  0  0  0
   -1.3393    1.2637   -0.8963 H   0  0  0  0  0  0  0  0  0  0  0  0
   -2.0224    0.2559    0.1934 H   0  0  0  0  0  0  0  0  0  0  0  0
   -0.5470   -0.6874    3.3505 C   0  0  0  0  0  0  0  0  0  0  0  0
   -0.1216    0.1176    2.8713 H   0  0  0  0  0  0  0  0  0  0  0  0
   -0.0952   -1.5136    2.9366 H   0  0  0  0  0  0  0  0  0  0  0  0
   -0.2889   -0.6408    4.4085 H   0  0  0  0  0  0  0  0  0  0  0  0
   -2.3418   -0.7284    3.0360 S   0  0  0  0  0  0  0  0  0  0  0  0
   -2.6349   -2.4881    2.9879 C   0  0  0  0  0  0  0  0  0  0  0  0
   -3.3473   -2.7317    3.6493 H   0  0  0  0  0  0  0  0  0  0  0  0
   -2.9325   -2.7578    2.0699 H   0  0  0  0  0  0  0  0  0  0  0  0
   -1.7916   -2.9785    3.2174 H   0  0  0  0  0  0  0  0  0  0  0  0
  1  5  1  0
  5  8  1  0
  1  2  1  0
  1  3  1  0
  1  4  1  0
  5  6  1  0
  5  7  1  0
  8  9  1  0
  8 10  1  0
  8 11  1  0
 12 16  1  0
 16 17  1  0
 12 13  1  0
 12 14  1  0
 12 15  1  0
 17 18  1  0
 17 19  1  0
 17 20  1  0
M  CHG  1   8   1
M  END
>  <PDB_ID>  (348) 
pdb1hzd

>  <RESIDUE_NAME>  (348) 
LYS   MET

>  <FRAG_NAME>  (348) 
ETAM   MSM

>  <FRAG_ATOM_NUM>  (348) 
fragi: 11  fragj: 9

>  <atom.prop.CHAIN_ID>  (348) 
A A A A A A A A A A A Z Z Z Z Z Z Z Z Z

>  <atom.prop.IS_HEAVY_ATOM>  (348) 
1 0 0 0 1 0 0 1 0 0 0 1 0 0 0 1 1 0 0 0

>  <DIFUSE_FUNC_ATOM>  (348) 
n/a

>  <FINAL_SINGLE_POINT_ENERGY>  (348) 
0

>  <NONCOV_INTER_ENERGY_QM>  (348) 
0

>  <FF_Energy>  (348) 
-3.06

>  <QM_Energy>  (348) 
-10.49

>  <source>  (348) 
ETAM_MSM

>  <Index>  (348) 
1944

$$$$
ETAM-pdb2isv-A-LYS-268:MSM-pdb2isv-A-MET-222
     RDKit          3D

 20 18  0  0  0  0  0  0  0  0999 V2000
    1.2978    0.8349    0.0000 C   0  0  0  0  0  0  0  0  0  0  0  0
    2.0384    0.2606    0.3472 H   0  0  0  0  0  0  0  0  0  0  0  0
    1.1659    1.6158    0.6096 H   0  0  0  0  0  0  0  0  0  0  0  0
    1.5798    1.2059   -0.9853 H   0  0  0  0  0  0  0  0  0  0  0  0
    0.0000    0.0000    0.0000 C   0  0  0  0  0  0  0  0  0  0  0  0
    0.0252   -0.6202   -0.8168 H   0  0  0  0  0  0  0  0  0  0  0  0
    0.0246   -0.6197    0.8163 H   0  0  0  0  0  0  0  0  0  0  0  0
   -1.2978    0.7418   -0.0000 N   0  0  0  0  0  4  0  0  0  0  0  0
   -1.1282    1.7003   -0.2221 H   0  0  0  0  0  0  0  0  0  0  0  0
   -1.9052    0.3401   -0.6827 H   0  0  0  0  0  0  0  0  0  0  0  0
   -1.7146    0.6734    0.9045 H   0  0  0  0  0  0  0  0  0  0  0  0
    4.6816   -1.8042    1.0411 C   0  0  0  0  0  0  0  0  0  0  0  0
    5.5535   -1.4644    0.6323 H   0  0  0  0  0  0  0  0  0  0  0  0
    4.0397   -1.9480    0.2592 H   0  0  0  0  0  0  0  0  0  0  0  0
    4.8739   -2.7674    1.5138 H   0  0  0  0  0  0  0  0  0  0  0  0
    4.0201   -0.6348    2.2107 S   0  0  0  0  0  0  0  0  0  0  0  0
    2.2237   -1.1819    2.1834 C   0  0  0  0  0  0  0  0  0  0  0  0
    1.7530   -0.6765    2.8895 H   0  0  0  0  0  0  0  0  0  0  0  0
    1.8675   -0.9717    1.2870 H   0  0  0  0  0  0  0  0  0  0  0  0
    2.2114   -2.1533    2.3611 H   0  0  0  0  0  0  0  0  0  0  0  0
  1  5  1  0
  5  8  1  0
  1  2  1  0
  1  3  1  0
  1  4  1  0
  5  6  1  0
  5  7  1  0
  8  9  1  0
  8 10  1  0
  8 11  1  0
 12 16  1  0
 16 17  1  0
 12 13  1  0
 12 14  1  0
 12 15  1  0
 17 18  1  0
 17 19  1  0
 17 20  1  0
M  CHG  1   8   1
M  END
>  <PDB_ID>  (349) 
pdb2isv

>  <RESIDUE_NAME>  (349) 
LYS   MET

>  <FRAG_NAME>  (349) 
ETAM   MSM

>  <FRAG_ATOM_NUM>  (349) 
fragi: 11  fragj: 9

>  <atom.prop.CHAIN_ID>  (349) 
A A A A A A A A A A A Z Z Z Z Z Z Z Z Z

>  <atom.prop.IS_HEAVY_ATOM>  (349) 
1 0 0 0 1 0 0 1 0 0 0 1 0 0 0 1 1 0 0 0

>  <DIFUSE_FUNC_ATOM>  (349) 
n/a

>  <FINAL_SINGLE_POINT_ENERGY>  (349) 
0

>  <NONCOV_INTER_ENERGY_QM>  (349) 
0

>  <FF_Energy>  (349) 
24.88

>  <QM_Energy>  (349) 
4.27

>  <source>  (349) 
ETAM_MSM

>  <Index>  (349) 
1945

$$$$
ETAM-pdb2iod-C-LYS-270:MSM-pdb2iod-C-MET-266
     RDKit          3D

 20 18  0  0  0  0  0  0  0  0999 V2000
    1.2261    0.8680    0.0000 C   0  0  0  0  0  0  0  0  0  0  0  0
    1.2253    1.4424    0.8161 H   0  0  0  0  0  0  0  0  0  0  0  0
    1.2252    1.4420   -0.8172 H   0  0  0  0  0  0  0  0  0  0  0  0
    2.1474    0.2854    0.0006 H   0  0  0  0  0  0  0  0  0  0  0  0
    0.0000    0.0000    0.0000 C   0  0  0  0  0  0  0  0  0  0  0  0
    0.0023   -0.5783   -0.8155 H   0  0  0  0  0  0  0  0  0  0  0  0
    0.0018   -0.5781    0.8170 H   0  0  0  0  0  0  0  0  0  0  0  0
   -1.2261    0.8368   -0.0000 N   0  0  0  0  0  4  0  0  0  0  0  0
   -1.0351    1.7086    0.4508 H   0  0  0  0  0  0  0  0  0  0  0  0
   -1.5152    1.0044   -0.9427 H   0  0  0  0  0  0  0  0  0  0  0  0
   -1.9552    0.3596    0.4921 H   0  0  0  0  0  0  0  0  0  0  0  0
   -0.1915   -2.0765    2.2885 C   0  0  0  0  0  0  0  0  0  0  0  0
    0.5836   -1.3647    2.3776 H   0  0  0  0  0  0  0  0  0  0  0  0
    0.0650   -2.5469    1.3785 H   0  0  0  0  0  0  0  0  0  0  0  0
   -0.0304   -2.8123    3.0764 H   0  0  0  0  0  0  0  0  0  0  0  0
   -1.7997   -1.2547    2.1505 S   0  0  0  0  0  0  0  0  0  0  0  0
   -2.0183   -0.4111    3.7224 C   0  0  0  0  0  0  0  0  0  0  0  0
   -1.6115    0.5012    3.6700 H   0  0  0  0  0  0  0  0  0  0  0  0
   -2.9948   -0.3303    3.9242 H   0  0  0  0  0  0  0  0  0  0  0  0
   -1.5704   -0.9353    4.4463 H   0  0  0  0  0  0  0  0  0  0  0  0
  1  5  1  0
  5  8  1  0
  1  2  1  0
  1  3  1  0
  1  4  1  0
  5  6  1  0
  5  7  1  0
  8  9  1  0
  8 10  1  0
  8 11  1  0
 12 16  1  0
 16 17  1  0
 12 13  1  0
 12 14  1  0
 12 15  1  0
 17 18  1  0
 17 19  1  0
 17 20  1  0
M  CHG  1   8   1
M  END
>  <PDB_ID>  (350) 
pdb2iod

>  <RESIDUE_NAME>  (350) 
LYS   MET

>  <FRAG_NAME>  (350) 
ETAM   MSM

>  <FRAG_ATOM_NUM>  (350) 
fragi: 11  fragj: 9

>  <atom.prop.CHAIN_ID>  (350) 
A A A A A A A A A A A Z Z Z Z Z Z Z Z Z

>  <atom.prop.IS_HEAVY_ATOM>  (350) 
1 0 0 0 1 0 0 1 0 0 0 1 0 0 0 1 1 0 0 0

>  <DIFUSE_FUNC_ATOM>  (350) 
n/a

>  <FINAL_SINGLE_POINT_ENERGY>  (350) 
0

>  <NONCOV_INTER_ENERGY_QM>  (350) 
0

>  <FF_Energy>  (350) 
21.73

>  <QM_Energy>  (350) 
-7.6

>  <source>  (350) 
ETAM_MSM

>  <Index>  (350) 
1949

$$$$
ETAM-pdb1i4d-B-LYS-130:MSM-pdb1i4d-B-MET-127
     RDKit          3D

 20 18  0  0  0  0  0  0  0  0999 V2000
    1.2716    0.8592    0.0000 C   0  0  0  0  0  0  0  0  0  0  0  0
    1.4265    1.1885    0.9225 H   0  0  0  0  0  0  0  0  0  0  0  0
    1.1376    1.6160   -0.6269 H   0  0  0  0  0  0  0  0  0  0  0  0
    2.1407    0.2843   -0.3200 H   0  0  0  0  0  0  0  0  0  0  0  0
    0.0000    0.0000    0.0000 C   0  0  0  0  0  0  0  0  0  0  0  0
    0.0152   -0.5958   -0.8165 H   0  0  0  0  0  0  0  0  0  0  0  0
    0.0148   -0.5959    0.8159 H   0  0  0  0  0  0  0  0  0  0  0  0
   -1.2716    0.7920   -0.0000 N   0  0  0  0  0  4  0  0  0  0  0  0
   -1.1155    1.6603    0.4658 H   0  0  0  0  0  0  0  0  0  0  0  0
   -1.5528    0.9599   -0.9429 H   0  0  0  0  0  0  0  0  0  0  0  0
   -1.9786    0.2742    0.4772 H   0  0  0  0  0  0  0  0  0  0  0  0
   -3.5789   -3.5962    0.8035 C   0  0  0  0  0  0  0  0  0  0  0  0
   -3.7948   -3.9079   -0.1584 H   0  0  0  0  0  0  0  0  0  0  0  0
   -4.3480   -3.9845    1.3751 H   0  0  0  0  0  0  0  0  0  0  0  0
   -2.6500   -4.0743    1.1142 H   0  0  0  0  0  0  0  0  0  0  0  0
   -3.5911   -1.7639    0.8909 S   0  0  0  0  0  0  0  0  0  0  0  0
   -5.2659   -1.4049    1.5629 C   0  0  0  0  0  0  0  0  0  0  0  0
   -5.6415   -0.6309    1.0659 H   0  0  0  0  0  0  0  0  0  0  0  0
   -5.8323   -2.2104    1.4347 H   0  0  0  0  0  0  0  0  0  0  0  0
   -5.1752   -1.1908    2.5285 H   0  0  0  0  0  0  0  0  0  0  0  0
  1  5  1  0
  5  8  1  0
  1  2  1  0
  1  3  1  0
  1  4  1  0
  5  6  1  0
  5  7  1  0
  8  9  1  0
  8 10  1  0
  8 11  1  0
 12 16  1  0
 16 17  1  0
 12 13  1  0
 12 14  1  0
 12 15  1  0
 17 18  1  0
 17 19  1  0
 17 20  1  0
M  CHG  1   8   1
M  END
>  <PDB_ID>  (351) 
pdb1i4d

>  <RESIDUE_NAME>  (351) 
LYS   MET

>  <FRAG_NAME>  (351) 
ETAM   MSM

>  <FRAG_ATOM_NUM>  (351) 
fragi: 11  fragj: 9

>  <atom.prop.CHAIN_ID>  (351) 
A A A A A A A A A A A Z Z Z Z Z Z Z Z Z

>  <atom.prop.IS_HEAVY_ATOM>  (351) 
1 0 0 0 1 0 0 1 0 0 0 1 0 0 0 1 1 0 0 0

>  <DIFUSE_FUNC_ATOM>  (351) 
n/a

>  <FINAL_SINGLE_POINT_ENERGY>  (351) 
0

>  <NONCOV_INTER_ENERGY_QM>  (351) 
0

>  <FF_Energy>  (351) 
-5.65

>  <QM_Energy>  (351) 
-13.91

>  <source>  (351) 
ETAM_MSM

>  <Index>  (351) 
1953

$$$$
ETAM-pdb1hzd-D-LYS-234:MSM-pdb1hzd-D-MET-230
     RDKit          3D

 20 18  0  0  0  0  0  0  0  0999 V2000
    1.2574    0.8705   -0.0000 C   0  0  0  0  0  0  0  0  0  0  0  0
    1.2894    1.3825    0.8533 H   0  0  0  0  0  0  0  0  0  0  0  0
    1.2120    1.4943   -0.7742 H   0  0  0  0  0  0  0  0  0  0  0  0
    2.1695    0.2796   -0.0836 H   0  0  0  0  0  0  0  0  0  0  0  0
    0.0000    0.0000    0.0000 C   0  0  0  0  0  0  0  0  0  0  0  0
    0.0090   -0.5824   -0.8162 H   0  0  0  0  0  0  0  0  0  0  0  0
    0.0087   -0.5826    0.8167 H   0  0  0  0  0  0  0  0  0  0  0  0
   -1.2574    0.8207   -0.0000 N   0  0  0  0  0  4  0  0  0  0  0  0
   -1.9258    0.3905   -0.6016 H   0  0  0  0  0  0  0  0  0  0  0  0
   -1.6161    0.8662    0.9291 H   0  0  0  0  0  0  0  0  0  0  0  0
   -1.0467    1.7389   -0.3276 H   0  0  0  0  0  0  0  0  0  0  0  0
   -0.1827   -1.1104    3.0653 C   0  0  0  0  0  0  0  0  0  0  0  0
    0.0931   -0.2127    2.6683 H   0  0  0  0  0  0  0  0  0  0  0  0
    0.2947   -1.8258    2.5156 H   0  0  0  0  0  0  0  0  0  0  0  0
    0.1635   -1.1639    4.0974 H   0  0  0  0  0  0  0  0  0  0  0  0
   -1.9726   -1.3240    2.9641 S   0  0  0  0  0  0  0  0  0  0  0  0
   -2.0919   -2.9477    2.3380 C   0  0  0  0  0  0  0  0  0  0  0  0
   -1.3501   -3.1348    1.6802 H   0  0  0  0  0  0  0  0  0  0  0  0
   -2.0278   -3.6258    3.0824 H   0  0  0  0  0  0  0  0  0  0  0  0
   -2.9722   -3.0859    1.8633 H   0  0  0  0  0  0  0  0  0  0  0  0
  1  5  1  0
  5  8  1  0
  1  2  1  0
  1  3  1  0
  1  4  1  0
  5  6  1  0
  5  7  1  0
  8  9  1  0
  8 10  1  0
  8 11  1  0
 12 16  1  0
 16 17  1  0
 12 13  1  0
 12 14  1  0
 12 15  1  0
 17 18  1  0
 17 19  1  0
 17 20  1  0
M  CHG  1   8   1
M  END
>  <PDB_ID>  (352) 
pdb1hzd

>  <RESIDUE_NAME>  (352) 
LYS   MET

>  <FRAG_NAME>  (352) 
ETAM   MSM

>  <FRAG_ATOM_NUM>  (352) 
fragi: 11  fragj: 9

>  <atom.prop.CHAIN_ID>  (352) 
A A A A A A A A A A A Z Z Z Z Z Z Z Z Z

>  <atom.prop.IS_HEAVY_ATOM>  (352) 
1 0 0 0 1 0 0 1 0 0 0 1 0 0 0 1 1 0 0 0

>  <DIFUSE_FUNC_ATOM>  (352) 
n/a

>  <FINAL_SINGLE_POINT_ENERGY>  (352) 
0

>  <NONCOV_INTER_ENERGY_QM>  (352) 
0

>  <FF_Energy>  (352) 
2.4

>  <QM_Energy>  (352) 
-8.04

>  <source>  (352) 
ETAM_MSM

>  <Index>  (352) 
1955

$$$$
ETAM-pdb1hzd-E-LYS-234:MSM-pdb1hzd-E-MET-230
     RDKit          3D

 20 18  0  0  0  0  0  0  0  0999 V2000
    1.2323    0.8775    0.0000 C   0  0  0  0  0  0  0  0  0  0  0  0
    1.2130    1.4595    0.8056 H   0  0  0  0  0  0  0  0  0  0  0  0
    1.2347    1.4287   -0.8270 H   0  0  0  0  0  0  0  0  0  0  0  0
    2.1436    0.2801    0.0242 H   0  0  0  0  0  0  0  0  0  0  0  0
    0.0000    0.0000    0.0000 C   0  0  0  0  0  0  0  0  0  0  0  0
    0.0142   -0.5821   -0.8163 H   0  0  0  0  0  0  0  0  0  0  0  0
    0.0144   -0.5819    0.8163 H   0  0  0  0  0  0  0  0  0  0  0  0
   -1.2323    0.8144   -0.0000 N   0  0  0  0  0  4  0  0  0  0  0  0
   -1.9516    0.3382   -0.5086 H   0  0  0  0  0  0  0  0  0  0  0  0
   -1.5375    0.9632    0.9421 H   0  0  0  0  0  0  0  0  0  0  0  0
   -1.0516    1.6992   -0.4330 H   0  0  0  0  0  0  0  0  0  0  0  0
   -0.3656   -0.5827    3.2262 C   0  0  0  0  0  0  0  0  0  0  0  0
    0.0872    0.1446    2.6874 H   0  0  0  0  0  0  0  0  0  0  0  0
    0.0035   -1.4707    2.9112 H   0  0  0  0  0  0  0  0  0  0  0  0
   -0.1183   -0.4482    4.2793 H   0  0  0  0  0  0  0  0  0  0  0  0
   -2.1387   -0.5186    3.0309 S   0  0  0  0  0  0  0  0  0  0  0  0
   -2.5441   -2.2372    3.0480 C   0  0  0  0  0  0  0  0  0  0  0  0
   -2.2675   -2.6514    3.9216 H   0  0  0  0  0  0  0  0  0  0  0  0
   -3.5350   -2.3620    2.9319 H   0  0  0  0  0  0  0  0  0  0  0  0
   -2.0697   -2.7145    2.3004 H   0  0  0  0  0  0  0  0  0  0  0  0
  1  5  1  0
  5  8  1  0
  1  2  1  0
  1  3  1  0
  1  4  1  0
  5  6  1  0
  5  7  1  0
  8  9  1  0
  8 10  1  0
  8 11  1  0
 12 16  1  0
 16 17  1  0
 12 13  1  0
 12 14  1  0
 12 15  1  0
 17 18  1  0
 17 19  1  0
 17 20  1  0
M  CHG  1   8   1
M  END
>  <PDB_ID>  (353) 
pdb1hzd

>  <RESIDUE_NAME>  (353) 
LYS   MET

>  <FRAG_NAME>  (353) 
ETAM   MSM

>  <FRAG_ATOM_NUM>  (353) 
fragi: 11  fragj: 9

>  <atom.prop.CHAIN_ID>  (353) 
A A A A A A A A A A A Z Z Z Z Z Z Z Z Z

>  <atom.prop.IS_HEAVY_ATOM>  (353) 
1 0 0 0 1 0 0 1 0 0 0 1 0 0 0 1 1 0 0 0

>  <DIFUSE_FUNC_ATOM>  (353) 
n/a

>  <FINAL_SINGLE_POINT_ENERGY>  (353) 
0

>  <NONCOV_INTER_ENERGY_QM>  (353) 
0

>  <FF_Energy>  (353) 
-1.51

>  <QM_Energy>  (353) 
-11.31

>  <source>  (353) 
ETAM_MSM

>  <Index>  (353) 
1963

$$$$
ETAM-pdb1i7l-A-LYS-374:MSM-pdb1i7l-A-MET-389
     RDKit          3D

 20 18  0  0  0  0  0  0  0  0999 V2000
    1.2633    0.8608    0.0000 C   0  0  0  0  0  0  0  0  0  0  0  0
    1.4625    1.1331    0.9386 H   0  0  0  0  0  0  0  0  0  0  0  0
    1.0977    1.6685   -0.5612 H   0  0  0  0  0  0  0  0  0  0  0  0
    2.1313    0.3350   -0.3978 H   0  0  0  0  0  0  0  0  0  0  0  0
    0.0000    0.0000    0.0000 C   0  0  0  0  0  0  0  0  0  0  0  0
   -0.0110   -0.5721   -0.8166 H   0  0  0  0  0  0  0  0  0  0  0  0
   -0.0115   -0.5724    0.8159 H   0  0  0  0  0  0  0  0  0  0  0  0
   -1.2633    0.8615    0.0000 N   0  0  0  0  0  4  0  0  0  0  0  0
   -1.6745    0.8114    0.9024 H   0  0  0  0  0  0  0  0  0  0  0  0
   -1.0024    1.7956   -0.2147 H   0  0  0  0  0  0  0  0  0  0  0  0
   -1.8843    0.5036   -0.6882 H   0  0  0  0  0  0  0  0  0  0  0  0
   -0.5677    0.4100   -3.9784 C   0  0  0  0  0  0  0  0  0  0  0  0
   -1.4908    0.0055   -3.8210 H   0  0  0  0  0  0  0  0  0  0  0  0
    0.0943   -0.1818   -3.4764 H   0  0  0  0  0  0  0  0  0  0  0  0
   -0.3408    0.3757   -5.0440 H   0  0  0  0  0  0  0  0  0  0  0  0
   -0.5048    2.1051   -3.3458 S   0  0  0  0  0  0  0  0  0  0  0  0
    1.2341    2.3716   -3.1743 C   0  0  0  0  0  0  0  0  0  0  0  0
    1.7312    1.9102   -3.9165 H   0  0  0  0  0  0  0  0  0  0  0  0
    1.4407    3.3542   -3.2112 H   0  0  0  0  0  0  0  0  0  0  0  0
    1.5562    2.0074   -2.2950 H   0  0  0  0  0  0  0  0  0  0  0  0
  1  5  1  0
  5  8  1  0
  1  2  1  0
  1  3  1  0
  1  4  1  0
  5  6  1  0
  5  7  1  0
  8  9  1  0
  8 10  1  0
  8 11  1  0
 12 16  1  0
 16 17  1  0
 12 13  1  0
 12 14  1  0
 12 15  1  0
 17 18  1  0
 17 19  1  0
 17 20  1  0
M  CHG  1   8   1
M  END
>  <PDB_ID>  (354) 
pdb1i7l

>  <RESIDUE_NAME>  (354) 
LYS   MET

>  <FRAG_NAME>  (354) 
ETAM   MSM

>  <FRAG_ATOM_NUM>  (354) 
fragi: 11  fragj: 9

>  <atom.prop.CHAIN_ID>  (354) 
A A A A A A A A A A A Z Z Z Z Z Z Z Z Z

>  <atom.prop.IS_HEAVY_ATOM>  (354) 
1 0 0 0 1 0 0 1 0 0 0 1 0 0 0 1 1 0 0 0

>  <DIFUSE_FUNC_ATOM>  (354) 
n/a

>  <FINAL_SINGLE_POINT_ENERGY>  (354) 
0

>  <NONCOV_INTER_ENERGY_QM>  (354) 
0

>  <FF_Energy>  (354) 
-1.51

>  <QM_Energy>  (354) 
-9.04

>  <source>  (354) 
ETAM_MSM

>  <Index>  (354) 
1964

$$$$
ETAM-pdb1i7l-B-LYS-374:MSM-pdb1i7l-B-MET-389
     RDKit          3D

 20 18  0  0  0  0  0  0  0  0999 V2000
    1.2831    0.8386   -0.0000 C   0  0  0  0  0  0  0  0  0  0  0  0
    1.2296    1.5063    0.7330 H   0  0  0  0  0  0  0  0  0  0  0  0
    1.3695    1.2908   -0.8793 H   0  0  0  0  0  0  0  0  0  0  0  0
    2.1740    0.2311    0.1594 H   0  0  0  0  0  0  0  0  0  0  0  0
    0.0000    0.0000    0.0000 C   0  0  0  0  0  0  0  0  0  0  0  0
   -0.0089   -0.5893   -0.8166 H   0  0  0  0  0  0  0  0  0  0  0  0
   -0.0093   -0.5894    0.8163 H   0  0  0  0  0  0  0  0  0  0  0  0
   -1.2831    0.8322   -0.0000 N   0  0  0  0  0  4  0  0  0  0  0  0
   -1.9722    0.3419    0.5204 H   0  0  0  0  0  0  0  0  0  0  0  0
   -1.0847    1.7092    0.4212 H   0  0  0  0  0  0  0  0  0  0  0  0
   -1.5757    0.9533   -0.9414 H   0  0  0  0  0  0  0  0  0  0  0  0
   -0.6966   -2.5670    2.5578 C   0  0  0  0  0  0  0  0  0  0  0  0
   -1.4037   -2.0082    3.0107 H   0  0  0  0  0  0  0  0  0  0  0  0
    0.1575   -2.0307    2.5348 H   0  0  0  0  0  0  0  0  0  0  0  0
   -0.5403   -3.4891    3.1175 H   0  0  0  0  0  0  0  0  0  0  0  0
   -1.2153   -2.9909    0.8745 S   0  0  0  0  0  0  0  0  0  0  0  0
    0.3966   -3.3306    0.1203 C   0  0  0  0  0  0  0  0  0  0  0  0
    0.7629   -2.4837   -0.2604 H   0  0  0  0  0  0  0  0  0  0  0  0
    1.0148   -3.6841    0.8188 H   0  0  0  0  0  0  0  0  0  0  0  0
    0.2809   -4.0065   -0.6042 H   0  0  0  0  0  0  0  0  0  0  0  0
  1  5  1  0
  5  8  1  0
  1  2  1  0
  1  3  1  0
  1  4  1  0
  5  6  1  0
  5  7  1  0
  8  9  1  0
  8 10  1  0
  8 11  1  0
 12 16  1  0
 16 17  1  0
 12 13  1  0
 12 14  1  0
 12 15  1  0
 17 18  1  0
 17 19  1  0
 17 20  1  0
M  CHG  1   8   1
M  END
>  <PDB_ID>  (355) 
pdb1i7l

>  <RESIDUE_NAME>  (355) 
LYS   MET

>  <FRAG_NAME>  (355) 
ETAM   MSM

>  <FRAG_ATOM_NUM>  (355) 
fragi: 11  fragj: 9

>  <atom.prop.CHAIN_ID>  (355) 
A A A A A A A A A A A Z Z Z Z Z Z Z Z Z

>  <atom.prop.IS_HEAVY_ATOM>  (355) 
1 0 0 0 1 0 0 1 0 0 0 1 0 0 0 1 1 0 0 0

>  <DIFUSE_FUNC_ATOM>  (355) 
n/a

>  <FINAL_SINGLE_POINT_ENERGY>  (355) 
0

>  <NONCOV_INTER_ENERGY_QM>  (355) 
0

>  <FF_Energy>  (355) 
-0.93

>  <QM_Energy>  (355) 
-6.88

>  <source>  (355) 
ETAM_MSM

>  <Index>  (355) 
1965

$$$$
ETAM-pdb2itm-A-LYS-346:MSM-pdb2itm-A-MET-483
     RDKit          3D

 20 18  0  0  0  0  0  0  0  0999 V2000
    1.2412    0.8693    0.0000 C   0  0  0  0  0  0  0  0  0  0  0  0
    1.1990    1.4777    0.7937 H   0  0  0  0  0  0  0  0  0  0  0  0
    1.2418    1.4165   -0.8386 H   0  0  0  0  0  0  0  0  0  0  0  0
    2.1575    0.2810    0.0473 H   0  0  0  0  0  0  0  0  0  0  0  0
    0.0000    0.0000    0.0000 C   0  0  0  0  0  0  0  0  0  0  0  0
    0.0066   -0.5806   -0.8159 H   0  0  0  0  0  0  0  0  0  0  0  0
    0.0068   -0.5809    0.8167 H   0  0  0  0  0  0  0  0  0  0  0  0
   -1.2412    0.8252   -0.0000 N   0  0  0  0  0  4  0  0  0  0  0  0
   -1.1342    1.5829    0.6430 H   0  0  0  0  0  0  0  0  0  0  0  0
   -1.3995    1.1847   -0.9188 H   0  0  0  0  0  0  0  0  0  0  0  0
   -2.0153    0.2572    0.2760 H   0  0  0  0  0  0  0  0  0  0  0  0
   -1.5832   -1.9742   -5.1548 C   0  0  0  0  0  0  0  0  0  0  0  0
   -2.4327   -2.3149   -5.6621 H   0  0  0  0  0  0  0  0  0  0  0  0
   -0.8143   -2.1777   -5.8350 H   0  0  0  0  0  0  0  0  0  0  0  0
   -1.6638   -0.8925   -5.0479 H   0  0  0  0  0  0  0  0  0  0  0  0
   -1.3424   -2.9078   -3.6403 S   0  0  0  0  0  0  0  0  0  0  0  0
   -0.1943   -1.8752   -2.7745 C   0  0  0  0  0  0  0  0  0  0  0  0
   -0.2939   -0.9206   -3.0729 H   0  0  0  0  0  0  0  0  0  0  0  0
   -0.3623   -1.9237   -1.7856 H   0  0  0  0  0  0  0  0  0  0  0  0
    0.7471   -2.1747   -2.9580 H   0  0  0  0  0  0  0  0  0  0  0  0
  1  5  1  0
  5  8  1  0
  1  2  1  0
  1  3  1  0
  1  4  1  0
  5  6  1  0
  5  7  1  0
  8  9  1  0
  8 10  1  0
  8 11  1  0
 12 16  1  0
 16 17  1  0
 12 13  1  0
 12 14  1  0
 12 15  1  0
 17 18  1  0
 17 19  1  0
 17 20  1  0
M  CHG  1   8   1
M  END
>  <PDB_ID>  (356) 
pdb2itm

>  <RESIDUE_NAME>  (356) 
LYS   MET

>  <FRAG_NAME>  (356) 
ETAM   MSM

>  <FRAG_ATOM_NUM>  (356) 
fragi: 11  fragj: 9

>  <atom.prop.CHAIN_ID>  (356) 
A A A A A A A A A A A Z Z Z Z Z Z Z Z Z

>  <atom.prop.IS_HEAVY_ATOM>  (356) 
1 0 0 0 1 0 0 1 0 0 0 1 0 0 0 1 1 0 0 0

>  <DIFUSE_FUNC_ATOM>  (356) 
n/a

>  <FINAL_SINGLE_POINT_ENERGY>  (356) 
0

>  <NONCOV_INTER_ENERGY_QM>  (356) 
0

>  <FF_Energy>  (356) 
9.58

>  <QM_Energy>  (356) 
1.86

>  <source>  (356) 
ETAM_MSM

>  <Index>  (356) 
1970

$$$$
ETAM-pdb2ivn-A-LYS-299:MSM-pdb2ivn-A-MET-1
     RDKit          3D

 20 18  0  0  0  0  0  0  0  0999 V2000
    1.2590    0.8710   -0.0000 C   0  0  0  0  0  0  0  0  0  0  0  0
    1.1828    1.5336   -0.7419 H   0  0  0  0  0  0  0  0  0  0  0  0
    2.0490    0.2811   -0.1529 H   0  0  0  0  0  0  0  0  0  0  0  0
    1.3992    1.4095    0.9373 H   0  0  0  0  0  0  0  0  0  0  0  0
    0.0000    0.0000    0.0000 C   0  0  0  0  0  0  0  0  0  0  0  0
    0.0169   -0.5889   -0.8159 H   0  0  0  0  0  0  0  0  0  0  0  0
    0.0159   -0.5889    0.8164 H   0  0  0  0  0  0  0  0  0  0  0  0
   -1.2590    0.8012   -0.0000 N   0  0  0  0  0  4  0  0  0  0  0  0
   -1.6751    0.7621    0.9071 H   0  0  0  0  0  0  0  0  0  0  0  0
   -1.0462    1.7494   -0.2320 H   0  0  0  0  0  0  0  0  0  0  0  0
   -1.8904    0.4231   -0.6758 H   0  0  0  0  0  0  0  0  0  0  0  0
   -1.2700    5.2302   -1.3597 C   0  0  0  0  0  0  0  0  0  0  0  0
   -1.6995    6.1498   -1.2158 H   0  0  0  0  0  0  0  0  0  0  0  0
   -1.9900    4.6562   -1.8090 H   0  0  0  0  0  0  0  0  0  0  0  0
   -0.4358    5.3434   -2.0522 H   0  0  0  0  0  0  0  0  0  0  0  0
   -0.7647    4.5083    0.2109 S   0  0  0  0  0  0  0  0  0  0  0  0
    0.0148    5.9120    0.9969 C   0  0  0  0  0  0  0  0  0  0  0  0
    0.7775    5.5994    1.5666 H   0  0  0  0  0  0  0  0  0  0  0  0
    0.3608    6.5404    0.2984 H   0  0  0  0  0  0  0  0  0  0  0  0
   -0.6516    6.3910    1.5709 H   0  0  0  0  0  0  0  0  0  0  0  0
  1  5  1  0
  5  8  1  0
  1  2  1  0
  1  3  1  0
  1  4  1  0
  5  6  1  0
  5  7  1  0
  8  9  1  0
  8 10  1  0
  8 11  1  0
 12 16  1  0
 16 17  1  0
 12 13  1  0
 12 14  1  0
 12 15  1  0
 17 18  1  0
 17 19  1  0
 17 20  1  0
M  CHG  1   8   1
M  END
>  <PDB_ID>  (357) 
pdb2ivn

>  <RESIDUE_NAME>  (357) 
LYS   MET

>  <FRAG_NAME>  (357) 
ETAM   MSM

>  <FRAG_ATOM_NUM>  (357) 
fragi: 11  fragj: 9

>  <atom.prop.CHAIN_ID>  (357) 
A A A A A A A A A A A Z Z Z Z Z Z Z Z Z

>  <atom.prop.IS_HEAVY_ATOM>  (357) 
1 0 0 0 1 0 0 1 0 0 0 1 0 0 0 1 1 0 0 0

>  <DIFUSE_FUNC_ATOM>  (357) 
n/a

>  <FINAL_SINGLE_POINT_ENERGY>  (357) 
0

>  <NONCOV_INTER_ENERGY_QM>  (357) 
0

>  <FF_Energy>  (357) 
-5.34

>  <QM_Energy>  (357) 
-11.8

>  <source>  (357) 
ETAM_MSM

>  <Index>  (357) 
1971

$$$$
ETAM-pdb2iy9-A-LYS-325:MSM-pdb2iy9-A-MET-329
     RDKit          3D

 20 18  0  0  0  0  0  0  0  0999 V2000
    1.2517    0.8751   -0.0000 C   0  0  0  0  0  0  0  0  0  0  0  0
    1.3655    1.2630   -0.9075 H   0  0  0  0  0  0  0  0  0  0  0  0
    2.0312    0.3089    0.2392 H   0  0  0  0  0  0  0  0  0  0  0  0
    1.1686    1.6870    0.7225 H   0  0  0  0  0  0  0  0  0  0  0  0
    0.0000    0.0000    0.0000 C   0  0  0  0  0  0  0  0  0  0  0  0
    0.0142   -0.5843   -0.8162 H   0  0  0  0  0  0  0  0  0  0  0  0
    0.0138   -0.5843    0.8163 H   0  0  0  0  0  0  0  0  0  0  0  0
   -1.2517    0.8118   -0.0000 N   0  0  0  0  0  4  0  0  0  0  0  0
   -1.6252    0.8420   -0.9266 H   0  0  0  0  0  0  0  0  0  0  0  0
   -1.9167    0.3934    0.6173 H   0  0  0  0  0  0  0  0  0  0  0  0
   -1.0435    1.7384    0.3087 H   0  0  0  0  0  0  0  0  0  0  0  0
   -1.6839    3.1632   -1.9518 C   0  0  0  0  0  0  0  0  0  0  0  0
   -0.6903    3.0211   -1.6836 H   0  0  0  0  0  0  0  0  0  0  0  0
   -2.1908    3.1061   -1.0469 H   0  0  0  0  0  0  0  0  0  0  0  0
   -1.7866    4.1797   -2.3317 H   0  0  0  0  0  0  0  0  0  0  0  0
   -2.2326    1.8381   -3.0684 S   0  0  0  0  0  0  0  0  0  0  0  0
   -3.9925    2.1608   -3.2243 C   0  0  0  0  0  0  0  0  0  0  0  0
   -4.2943    2.7368   -2.4644 H   0  0  0  0  0  0  0  0  0  0  0  0
   -4.1695    2.6302   -4.0892 H   0  0  0  0  0  0  0  0  0  0  0  0
   -4.4926    1.2948   -3.2061 H   0  0  0  0  0  0  0  0  0  0  0  0
  1  5  1  0
  5  8  1  0
  1  2  1  0
  1  3  1  0
  1  4  1  0
  5  6  1  0
  5  7  1  0
  8  9  1  0
  8 10  1  0
  8 11  1  0
 12 16  1  0
 16 17  1  0
 12 13  1  0
 12 14  1  0
 12 15  1  0
 17 18  1  0
 17 19  1  0
 17 20  1  0
M  CHG  1   8   1
M  END
>  <PDB_ID>  (358) 
pdb2iy9

>  <RESIDUE_NAME>  (358) 
LYS   MET

>  <FRAG_NAME>  (358) 
ETAM   MSM

>  <FRAG_ATOM_NUM>  (358) 
fragi: 11  fragj: 9

>  <atom.prop.CHAIN_ID>  (358) 
A A A A A A A A A A A Z Z Z Z Z Z Z Z Z

>  <atom.prop.IS_HEAVY_ATOM>  (358) 
1 0 0 0 1 0 0 1 0 0 0 1 0 0 0 1 1 0 0 0

>  <DIFUSE_FUNC_ATOM>  (358) 
n/a

>  <FINAL_SINGLE_POINT_ENERGY>  (358) 
0

>  <NONCOV_INTER_ENERGY_QM>  (358) 
0

>  <FF_Energy>  (358) 
-2.33

>  <QM_Energy>  (358) 
-12.44

>  <source>  (358) 
ETAM_MSM

>  <Index>  (358) 
1975

$$$$
ETAM-pdb1hzd-F-LYS-234:MSM-pdb1hzd-F-MET-230
     RDKit          3D

 20 18  0  0  0  0  0  0  0  0999 V2000
    1.2516    0.8684   -0.0000 C   0  0  0  0  0  0  0  0  0  0  0  0
    1.1796    1.5307    0.7495 H   0  0  0  0  0  0  0  0  0  0  0  0
    1.2965    1.3625   -0.8710 H   0  0  0  0  0  0  0  0  0  0  0  0
    2.1755    0.3040    0.1259 H   0  0  0  0  0  0  0  0  0  0  0  0
    0.0000    0.0000    0.0000 C   0  0  0  0  0  0  0  0  0  0  0  0
    0.0004   -0.5762   -0.8165 H   0  0  0  0  0  0  0  0  0  0  0  0
    0.0005   -0.5773    0.8165 H   0  0  0  0  0  0  0  0  0  0  0  0
   -1.2516    0.8396    0.0000 N   0  0  0  0  0  4  0  0  0  0  0  0
   -1.0036    1.7880    0.1800 H   0  0  0  0  0  0  0  0  0  0  0  0
   -1.6898    0.7640   -0.8918 H   0  0  0  0  0  0  0  0  0  0  0  0
   -1.8638    0.5047    0.7115 H   0  0  0  0  0  0  0  0  0  0  0  0
   -0.3551    0.1570    3.6195 C   0  0  0  0  0  0  0  0  0  0  0  0
   -0.1561    1.0060    3.1079 H   0  0  0  0  0  0  0  0  0  0  0  0
    0.1949   -0.5858    3.2106 H   0  0  0  0  0  0  0  0  0  0  0  0
   -0.0632    0.2889    4.6614 H   0  0  0  0  0  0  0  0  0  0  0  0
   -2.1015   -0.2322    3.5548 S   0  0  0  0  0  0  0  0  0  0  0  0
   -2.0021   -1.9975    3.6177 C   0  0  0  0  0  0  0  0  0  0  0  0
   -1.9184   -2.3735    2.6900 H   0  0  0  0  0  0  0  0  0  0  0  0
   -1.2008   -2.2807    4.1538 H   0  0  0  0  0  0  0  0  0  0  0  0
   -2.8284   -2.3763    4.0464 H   0  0  0  0  0  0  0  0  0  0  0  0
  1  5  1  0
  5  8  1  0
  1  2  1  0
  1  3  1  0
  1  4  1  0
  5  6  1  0
  5  7  1  0
  8  9  1  0
  8 10  1  0
  8 11  1  0
 12 16  1  0
 16 17  1  0
 12 13  1  0
 12 14  1  0
 12 15  1  0
 17 18  1  0
 17 19  1  0
 17 20  1  0
M  CHG  1   8   1
M  END
>  <PDB_ID>  (359) 
pdb1hzd

>  <RESIDUE_NAME>  (359) 
LYS   MET

>  <FRAG_NAME>  (359) 
ETAM   MSM

>  <FRAG_ATOM_NUM>  (359) 
fragi: 11  fragj: 9

>  <atom.prop.CHAIN_ID>  (359) 
A A A A A A A A A A A Z Z Z Z Z Z Z Z Z

>  <atom.prop.IS_HEAVY_ATOM>  (359) 
1 0 0 0 1 0 0 1 0 0 0 1 0 0 0 1 1 0 0 0

>  <DIFUSE_FUNC_ATOM>  (359) 
n/a

>  <FINAL_SINGLE_POINT_ENERGY>  (359) 
0

>  <NONCOV_INTER_ENERGY_QM>  (359) 
0

>  <FF_Energy>  (359) 
-3.8

>  <QM_Energy>  (359) 
-10.41

>  <source>  (359) 
ETAM_MSM

>  <Index>  (359) 
1976

$$$$
ETAM-pdb2iy9-A-LYS-332:MSM-pdb2iy9-A-MET-329
     RDKit          3D

 20 18  0  0  0  0  0  0  0  0999 V2000
    1.2767    0.8569    0.0000 C   0  0  0  0  0  0  0  0  0  0  0  0
    1.0847    1.7138    0.4703 H   0  0  0  0  0  0  0  0  0  0  0  0
    1.5395    1.0350   -0.9435 H   0  0  0  0  0  0  0  0  0  0  0  0
    2.1147    0.3735    0.5022 H   0  0  0  0  0  0  0  0  0  0  0  0
    0.0000    0.0000    0.0000 C   0  0  0  0  0  0  0  0  0  0  0  0
    0.0181   -0.6002   -0.8164 H   0  0  0  0  0  0  0  0  0  0  0  0
    0.0181   -0.6000    0.8164 H   0  0  0  0  0  0  0  0  0  0  0  0
   -1.2767    0.7816   -0.0000 N   0  0  0  0  0  4  0  0  0  0  0  0
   -1.3765    1.2449   -0.8786 H   0  0  0  0  0  0  0  0  0  0  0  0
   -2.0427    0.1570    0.1414 H   0  0  0  0  0  0  0  0  0  0  0  0
   -1.2482    1.4551    0.7365 H   0  0  0  0  0  0  0  0  0  0  0  0
   -1.9272    2.3170    3.5890 C   0  0  0  0  0  0  0  0  0  0  0  0
   -2.7359    1.6791    3.4529 H   0  0  0  0  0  0  0  0  0  0  0  0
   -2.3175    3.0839    4.1710 H   0  0  0  0  0  0  0  0  0  0  0  0
   -1.1807    1.7900    4.1832 H   0  0  0  0  0  0  0  0  0  0  0  0
   -1.3572    2.9647    1.9892 S   0  0  0  0  0  0  0  0  0  0  0  0
   -0.1256    4.1786    2.4744 C   0  0  0  0  0  0  0  0  0  0  0  0
   -0.2678    4.4336    3.4310 H   0  0  0  0  0  0  0  0  0  0  0  0
    0.7881    3.7873    2.3659 H   0  0  0  0  0  0  0  0  0  0  0  0
   -0.2121    4.9900    1.8960 H   0  0  0  0  0  0  0  0  0  0  0  0
  1  5  1  0
  5  8  1  0
  1  2  1  0
  1  3  1  0
  1  4  1  0
  5  6  1  0
  5  7  1  0
  8  9  1  0
  8 10  1  0
  8 11  1  0
 12 16  1  0
 16 17  1  0
 12 13  1  0
 12 14  1  0
 12 15  1  0
 17 18  1  0
 17 19  1  0
 17 20  1  0
M  CHG  1   8   1
M  END
>  <PDB_ID>  (360) 
pdb2iy9

>  <RESIDUE_NAME>  (360) 
LYS   MET

>  <FRAG_NAME>  (360) 
ETAM   MSM

>  <FRAG_ATOM_NUM>  (360) 
fragi: 11  fragj: 9

>  <atom.prop.CHAIN_ID>  (360) 
A A A A A A A A A A A Z Z Z Z Z Z Z Z Z

>  <atom.prop.IS_HEAVY_ATOM>  (360) 
1 0 0 0 1 0 0 1 0 0 0 1 0 0 0 1 1 0 0 0

>  <DIFUSE_FUNC_ATOM>  (360) 
n/a

>  <FINAL_SINGLE_POINT_ENERGY>  (360) 
0

>  <NONCOV_INTER_ENERGY_QM>  (360) 
0

>  <FF_Energy>  (360) 
-3.51

>  <QM_Energy>  (360) 
-14.63

>  <source>  (360) 
ETAM_MSM

>  <Index>  (360) 
1986

$$$$
ETAM-pdb2iv0-B-LYS-372:MSM-pdb2iv0-B-MET-376
     RDKit          3D

 20 18  0  0  0  0  0  0  0  0999 V2000
    1.2779    0.8702    0.0000 C   0  0  0  0  0  0  0  0  0  0  0  0
    1.1521    1.5988   -0.6588 H   0  0  0  0  0  0  0  0  0  0  0  0
    2.0415    0.2920   -0.2490 H   0  0  0  0  0  0  0  0  0  0  0  0
    1.4574    1.3017    0.9847 H   0  0  0  0  0  0  0  0  0  0  0  0
    0.0000    0.0000    0.0000 C   0  0  0  0  0  0  0  0  0  0  0  0
    0.0157   -0.5887   -0.8158 H   0  0  0  0  0  0  0  0  0  0  0  0
    0.0155   -0.5885    0.8164 H   0  0  0  0  0  0  0  0  0  0  0  0
   -1.2779    0.8015   -0.0000 N   0  0  0  0  0  4  0  0  0  0  0  0
   -2.0477    0.1800    0.1180 H   0  0  0  0  0  0  0  0  0  0  0  0
   -1.2475    1.4555    0.7507 H   0  0  0  0  0  0  0  0  0  0  0  0
   -1.3560    1.2821   -0.8691 H   0  0  0  0  0  0  0  0  0  0  0  0
   -1.9407    4.1402    1.1915 C   0  0  0  0  0  0  0  0  0  0  0  0
   -2.7042    4.0303    0.5179 H   0  0  0  0  0  0  0  0  0  0  0  0
   -1.0774    4.0040    0.6564 H   0  0  0  0  0  0  0  0  0  0  0  0
   -1.9569    5.1614    1.5721 H   0  0  0  0  0  0  0  0  0  0  0  0
   -2.0736    2.8691    2.5084 S   0  0  0  0  0  0  0  0  0  0  0  0
   -3.8431    2.9483    2.8715 C   0  0  0  0  0  0  0  0  0  0  0  0
   -4.1521    2.0538    3.1902 H   0  0  0  0  0  0  0  0  0  0  0  0
   -4.0020    3.6329    3.5806 H   0  0  0  0  0  0  0  0  0  0  0  0
   -4.3365    3.2007    2.0410 H   0  0  0  0  0  0  0  0  0  0  0  0
  1  5  1  0
  5  8  1  0
  1  2  1  0
  1  3  1  0
  1  4  1  0
  5  6  1  0
  5  7  1  0
  8  9  1  0
  8 10  1  0
  8 11  1  0
 12 16  1  0
 16 17  1  0
 12 13  1  0
 12 14  1  0
 12 15  1  0
 17 18  1  0
 17 19  1  0
 17 20  1  0
M  CHG  1   8   1
M  END
>  <PDB_ID>  (361) 
pdb2iv0

>  <RESIDUE_NAME>  (361) 
LYS   MET

>  <FRAG_NAME>  (361) 
ETAM   MSM

>  <FRAG_ATOM_NUM>  (361) 
fragi: 11  fragj: 9

>  <atom.prop.CHAIN_ID>  (361) 
A A A A A A A A A A A Z Z Z Z Z Z Z Z Z

>  <atom.prop.IS_HEAVY_ATOM>  (361) 
1 0 0 0 1 0 0 1 0 0 0 1 0 0 0 1 1 0 0 0

>  <DIFUSE_FUNC_ATOM>  (361) 
n/a

>  <FINAL_SINGLE_POINT_ENERGY>  (361) 
0

>  <NONCOV_INTER_ENERGY_QM>  (361) 
0

>  <FF_Energy>  (361) 
-4.74

>  <QM_Energy>  (361) 
-14.0

>  <source>  (361) 
ETAM_MSM

>  <Index>  (361) 
1988

$$$$
ETAM-pdb1ic2-A-LYS-6:MSM-pdb1ic2-A-MET-1
     RDKit          3D

 20 18  0  0  0  0  0  0  0  0999 V2000
    1.2464    0.8788   -0.0000 C   0  0  0  0  0  0  0  0  0  0  0  0
    1.1798    1.5190    0.7605 H   0  0  0  0  0  0  0  0  0  0  0  0
    1.2806    1.3753   -0.8626 H   0  0  0  0  0  0  0  0  0  0  0  0
    2.1585    0.2921    0.1096 H   0  0  0  0  0  0  0  0  0  0  0  0
    0.0000    0.0000    0.0000 C   0  0  0  0  0  0  0  0  0  0  0  0
    0.0120   -0.5798   -0.8164 H   0  0  0  0  0  0  0  0  0  0  0  0
    0.0123   -0.5802    0.8162 H   0  0  0  0  0  0  0  0  0  0  0  0
   -1.2464    0.8205    0.0000 N   0  0  0  0  0  4  0  0  0  0  0  0
   -1.0118    1.7769   -0.1677 H   0  0  0  0  0  0  0  0  0  0  0  0
   -1.8569    0.4930   -0.7198 H   0  0  0  0  0  0  0  0  0  0  0  0
   -1.6971    0.7351    0.8880 H   0  0  0  0  0  0  0  0  0  0  0  0
   -0.6093   -2.9269   -3.3158 C   0  0  0  0  0  0  0  0  0  0  0  0
    0.3474   -3.3076   -3.3216 H   0  0  0  0  0  0  0  0  0  0  0  0
   -1.0812   -3.3858   -4.1076 H   0  0  0  0  0  0  0  0  0  0  0  0
   -1.0976   -3.2464   -2.3951 H   0  0  0  0  0  0  0  0  0  0  0  0
   -0.5707   -1.1116   -3.5676 S   0  0  0  0  0  0  0  0  0  0  0  0
   -2.3533   -0.7926   -3.9051 C   0  0  0  0  0  0  0  0  0  0  0  0
   -2.5500   -1.0845   -4.8329 H   0  0  0  0  0  0  0  0  0  0  0  0
   -2.8906   -1.3123   -3.2519 H   0  0  0  0  0  0  0  0  0  0  0  0
   -2.5192    0.1804   -3.8009 H   0  0  0  0  0  0  0  0  0  0  0  0
  1  5  1  0
  5  8  1  0
  1  2  1  0
  1  3  1  0
  1  4  1  0
  5  6  1  0
  5  7  1  0
  8  9  1  0
  8 10  1  0
  8 11  1  0
 12 16  1  0
 16 17  1  0
 12 13  1  0
 12 14  1  0
 12 15  1  0
 17 18  1  0
 17 19  1  0
 17 20  1  0
M  CHG  1   8   1
M  END
>  <PDB_ID>  (362) 
pdb1ic2

>  <RESIDUE_NAME>  (362) 
LYS   MET

>  <FRAG_NAME>  (362) 
ETAM   MSM

>  <FRAG_ATOM_NUM>  (362) 
fragi: 11  fragj: 9

>  <atom.prop.CHAIN_ID>  (362) 
A A A A A A A A A A A Z Z Z Z Z Z Z Z Z

>  <atom.prop.IS_HEAVY_ATOM>  (362) 
1 0 0 0 1 0 0 1 0 0 0 1 0 0 0 1 1 0 0 0

>  <DIFUSE_FUNC_ATOM>  (362) 
n/a

>  <FINAL_SINGLE_POINT_ENERGY>  (362) 
0

>  <NONCOV_INTER_ENERGY_QM>  (362) 
0

>  <FF_Energy>  (362) 
-3.53

>  <QM_Energy>  (362) 
-8.84

>  <source>  (362) 
ETAM_MSM

>  <Index>  (362) 
1995

$$$$
ETAM-pdb1icf-B-LYS-200:MSM-pdb1icf-B-MET-195
     RDKit          3D

 20 18  0  0  0  0  0  0  0  0999 V2000
    1.2299    0.8544   -0.0000 C   0  0  0  0  0  0  0  0  0  0  0  0
    1.0316    1.7088    0.4719 H   0  0  0  0  0  0  0  0  0  0  0  0
    1.4985    1.0362   -0.9418 H   0  0  0  0  0  0  0  0  0  0  0  0
    2.0520    0.3532    0.5111 H   0  0  0  0  0  0  0  0  0  0  0  0
    0.0000    0.0000    0.0000 C   0  0  0  0  0  0  0  0  0  0  0  0
   -0.0099   -0.5770   -0.8161 H   0  0  0  0  0  0  0  0  0  0  0  0
   -0.0101   -0.5776    0.8159 H   0  0  0  0  0  0  0  0  0  0  0  0
   -1.2299    0.8519    0.0000 N   0  0  0  0  0  4  0  0  0  0  0  0
   -1.1789    1.5015    0.7569 H   0  0  0  0  0  0  0  0  0  0  0  0
   -1.2864    1.3462   -0.8661 H   0  0  0  0  0  0  0  0  0  0  0  0
   -2.0325    0.2683    0.1091 H   0  0  0  0  0  0  0  0  0  0  0  0
   -1.1262    0.3847    5.6396 C   0  0  0  0  0  0  0  0  0  0  0  0
   -1.8781    0.9553    6.0529 H   0  0  0  0  0  0  0  0  0  0  0  0
   -0.2534    0.7988    5.9977 H   0  0  0  0  0  0  0  0  0  0  0  0
   -1.2140   -0.6427    5.9928 H   0  0  0  0  0  0  0  0  0  0  0  0
   -1.1721    0.5501    3.8052 S   0  0  0  0  0  0  0  0  0  0  0  0
   -0.7883   -1.0404    3.2765 C   0  0  0  0  0  0  0  0  0  0  0  0
   -1.6101   -1.6340    3.2580 H   0  0  0  0  0  0  0  0  0  0  0  0
   -0.3971   -1.0374    2.3414 H   0  0  0  0  0  0  0  0  0  0  0  0
   -0.1100   -1.4814    3.8872 H   0  0  0  0  0  0  0  0  0  0  0  0
  1  5  1  0
  5  8  1  0
  1  2  1  0
  1  3  1  0
  1  4  1  0
  5  6  1  0
  5  7  1  0
  8  9  1  0
  8 10  1  0
  8 11  1  0
 12 16  1  0
 16 17  1  0
 12 13  1  0
 12 14  1  0
 12 15  1  0
 17 18  1  0
 17 19  1  0
 17 20  1  0
M  CHG  1   8   1
M  END
>  <PDB_ID>  (363) 
pdb1icf

>  <RESIDUE_NAME>  (363) 
LYS   MET

>  <FRAG_NAME>  (363) 
ETAM   MSM

>  <FRAG_ATOM_NUM>  (363) 
fragi: 11  fragj: 9

>  <atom.prop.CHAIN_ID>  (363) 
A A A A A A A A A A A Z Z Z Z Z Z Z Z Z

>  <atom.prop.IS_HEAVY_ATOM>  (363) 
1 0 0 0 1 0 0 1 0 0 0 1 0 0 0 1 1 0 0 0

>  <DIFUSE_FUNC_ATOM>  (363) 
n/a

>  <FINAL_SINGLE_POINT_ENERGY>  (363) 
0

>  <NONCOV_INTER_ENERGY_QM>  (363) 
0

>  <FF_Energy>  (363) 
6.51

>  <QM_Energy>  (363) 
-4.86

>  <source>  (363) 
ETAM_MSM

>  <Index>  (363) 
1997

$$$$
ETAM-pdb1hr6-H-LYS-113:MSM-pdb1hr6-G-MET-380
     RDKit          3D

 20 18  0  0  0  0  0  0  0  0999 V2000
    1.2574    0.8824    0.0000 C   0  0  0  0  0  0  0  0  0  0  0  0
    1.2921    1.3789   -0.8614 H   0  0  0  0  0  0  0  0  0  0  0  0
    2.0537    0.2940    0.0931 H   0  0  0  0  0  0  0  0  0  0  0  0
    1.2565    1.6023    0.8183 H   0  0  0  0  0  0  0  0  0  0  0  0
    0.0000    0.0000    0.0000 C   0  0  0  0  0  0  0  0  0  0  0  0
    0.0193   -0.5835   -0.8159 H   0  0  0  0  0  0  0  0  0  0  0  0
    0.0193   -0.5836    0.8168 H   0  0  0  0  0  0  0  0  0  0  0  0
   -1.2574    0.8043    0.0000 N   0  0  0  0  0  4  0  0  0  0  0  0
   -2.0208    0.2228    0.2770 H   0  0  0  0  0  0  0  0  0  0  0  0
   -1.1625    1.5638    0.6422 H   0  0  0  0  0  0  0  0  0  0  0  0
   -1.4214    1.1590   -0.9193 H   0  0  0  0  0  0  0  0  0  0  0  0
   -2.8959   -2.0457    2.7156 C   0  0  0  0  0  0  0  0  0  0  0  0
   -3.2497   -1.0722    2.6799 H   0  0  0  0  0  0  0  0  0  0  0  0
   -3.3569   -2.4478    3.5528 H   0  0  0  0  0  0  0  0  0  0  0  0
   -3.2631   -2.5744    1.8360 H   0  0  0  0  0  0  0  0  0  0  0  0
   -1.0880   -2.0510    2.9297 S   0  0  0  0  0  0  0  0  0  0  0  0
   -0.9527   -1.2104    4.5662 C   0  0  0  0  0  0  0  0  0  0  0  0
   -0.2134   -0.5505    4.5141 H   0  0  0  0  0  0  0  0  0  0  0  0
   -1.8161   -0.7578    4.7538 H   0  0  0  0  0  0  0  0  0  0  0  0
   -0.7603   -1.9006    5.2530 H   0  0  0  0  0  0  0  0  0  0  0  0
  1  5  1  0
  5  8  1  0
  1  2  1  0
  1  3  1  0
  1  4  1  0
  5  6  1  0
  5  7  1  0
  8  9  1  0
  8 10  1  0
  8 11  1  0
 12 16  1  0
 16 17  1  0
 12 13  1  0
 12 14  1  0
 12 15  1  0
 17 18  1  0
 17 19  1  0
 17 20  1  0
M  CHG  1   8   1
M  END
>  <PDB_ID>  (364) 
pdb1hr6

>  <RESIDUE_NAME>  (364) 
LYS   MET

>  <FRAG_NAME>  (364) 
ETAM   MSM

>  <FRAG_ATOM_NUM>  (364) 
fragi: 11  fragj: 9

>  <atom.prop.CHAIN_ID>  (364) 
A A A A A A A A A A A Z Z Z Z Z Z Z Z Z

>  <atom.prop.IS_HEAVY_ATOM>  (364) 
1 0 0 0 1 0 0 1 0 0 0 1 0 0 0 1 1 0 0 0

>  <DIFUSE_FUNC_ATOM>  (364) 
n/a

>  <FINAL_SINGLE_POINT_ENERGY>  (364) 
0

>  <NONCOV_INTER_ENERGY_QM>  (364) 
0

>  <FF_Energy>  (364) 
-3.18

>  <QM_Energy>  (364) 
-8.38

>  <source>  (364) 
ETAM_MSM

>  <Index>  (364) 
2005

$$$$
ETAM-pdb2iy4-C-LYS-141:MSM-pdb2iy4-C-MET-145
     RDKit          3D

 20 18  0  0  0  0  0  0  0  0999 V2000
    1.2528    0.8828    0.0000 C   0  0  0  0  0  0  0  0  0  0  0  0
    1.1982    1.5206   -0.7674 H   0  0  0  0  0  0  0  0  0  0  0  0
    2.0578    0.3005   -0.1055 H   0  0  0  0  0  0  0  0  0  0  0  0
    1.3813    1.4684    0.9103 H   0  0  0  0  0  0  0  0  0  0  0  0
    0.0000    0.0000    0.0000 C   0  0  0  0  0  0  0  0  0  0  0  0
    0.0143   -0.5786   -0.8167 H   0  0  0  0  0  0  0  0  0  0  0  0
    0.0140   -0.5786    0.8161 H   0  0  0  0  0  0  0  0  0  0  0  0
   -1.2528    0.8195    0.0000 N   0  0  0  0  0  4  0  0  0  0  0  0
   -1.9947    0.2830    0.3976 H   0  0  0  0  0  0  0  0  0  0  0  0
   -1.1044    1.6444    0.5415 H   0  0  0  0  0  0  0  0  0  0  0  0
   -1.4808    1.0678   -0.9398 H   0  0  0  0  0  0  0  0  0  0  0  0
    5.9216   -1.4670   -1.3998 C   0  0  0  0  0  0  0  0  0  0  0  0
    6.7322   -2.0376   -1.0770 H   0  0  0  0  0  0  0  0  0  0  0  0
    5.8814   -0.6964   -0.6997 H   0  0  0  0  0  0  0  0  0  0  0  0
    6.1880   -1.0277   -2.3611 H   0  0  0  0  0  0  0  0  0  0  0  0
    4.3971   -2.4477   -1.3520 S   0  0  0  0  0  0  0  0  0  0  0  0
    3.2018   -1.1856   -1.1360 C   0  0  0  0  0  0  0  0  0  0  0  0
    3.3870   -0.4111   -1.7534 H   0  0  0  0  0  0  0  0  0  0  0  0
    2.2775   -1.5334   -1.3352 H   0  0  0  0  0  0  0  0  0  0  0  0
    3.2130   -0.8431   -0.1884 H   0  0  0  0  0  0  0  0  0  0  0  0
  1  5  1  0
  5  8  1  0
  1  2  1  0
  1  3  1  0
  1  4  1  0
  5  6  1  0
  5  7  1  0
  8  9  1  0
  8 10  1  0
  8 11  1  0
 12 16  1  0
 16 17  1  0
 12 13  1  0
 12 14  1  0
 12 15  1  0
 17 18  1  0
 17 19  1  0
 17 20  1  0
M  CHG  1   8   1
M  END
>  <PDB_ID>  (365) 
pdb2iy4

>  <RESIDUE_NAME>  (365) 
LYS   MET

>  <FRAG_NAME>  (365) 
ETAM   MSM

>  <FRAG_ATOM_NUM>  (365) 
fragi: 11  fragj: 9

>  <atom.prop.CHAIN_ID>  (365) 
A A A A A A A A A A A Z Z Z Z Z Z Z Z Z

>  <atom.prop.IS_HEAVY_ATOM>  (365) 
1 0 0 0 1 0 0 1 0 0 0 1 0 0 0 1 1 0 0 0

>  <DIFUSE_FUNC_ATOM>  (365) 
n/a

>  <FINAL_SINGLE_POINT_ENERGY>  (365) 
0

>  <NONCOV_INTER_ENERGY_QM>  (365) 
0

>  <FF_Energy>  (365) 
20.26

>  <QM_Energy>  (365) 
4.59

>  <source>  (365) 
ETAM_MSM

>  <Index>  (365) 
2009

$$$$
ETAM-pdb1ii6-A-LYS-315:MSM-pdb1ii6-A-MET-184
     RDKit          3D

 20 18  0  0  0  0  0  0  0  0999 V2000
    1.2478    0.8736    0.0000 C   0  0  0  0  0  0  0  0  0  0  0  0
    2.0383    0.2975    0.1863 H   0  0  0  0  0  0  0  0  0  0  0  0
    1.1507    1.5643    0.7108 H   0  0  0  0  0  0  0  0  0  0  0  0
    1.3953    1.3727   -0.9577 H   0  0  0  0  0  0  0  0  0  0  0  0
    0.0000    0.0000    0.0000 C   0  0  0  0  0  0  0  0  0  0  0  0
    0.0105   -0.5818   -0.8167 H   0  0  0  0  0  0  0  0  0  0  0  0
    0.0101   -0.5819    0.8158 H   0  0  0  0  0  0  0  0  0  0  0  0
   -1.2478    0.8192    0.0000 N   0  0  0  0  0  4  0  0  0  0  0  0
   -1.9197    0.3955    0.6057 H   0  0  0  0  0  0  0  0  0  0  0  0
   -1.0366    1.7405    0.3235 H   0  0  0  0  0  0  0  0  0  0  0  0
   -1.6122    0.8637   -0.9292 H   0  0  0  0  0  0  0  0  0  0  0  0
    3.1343   -0.0699    5.2902 C   0  0  0  0  0  0  0  0  0  0  0  0
    2.2196    0.0869    5.7225 H   0  0  0  0  0  0  0  0  0  0  0  0
    3.8218    0.0703    6.0373 H   0  0  0  0  0  0  0  0  0  0  0  0
    3.1875   -1.1073    4.9596 H   0  0  0  0  0  0  0  0  0  0  0  0
    3.4109    1.1011    3.9418 S   0  0  0  0  0  0  0  0  0  0  0  0
    1.7765    1.1995    3.2344 C   0  0  0  0  0  0  0  0  0  0  0  0
    1.3433    2.0628    3.5004 H   0  0  0  0  0  0  0  0  0  0  0  0
    1.8359    1.1552    2.2350 H   0  0  0  0  0  0  0  0  0  0  0  0
    1.2173    0.4362    3.5643 H   0  0  0  0  0  0  0  0  0  0  0  0
  1  5  1  0
  5  8  1  0
  1  2  1  0
  1  3  1  0
  1  4  1  0
  5  6  1  0
  5  7  1  0
  8  9  1  0
  8 10  1  0
  8 11  1  0
 12 16  1  0
 16 17  1  0
 12 13  1  0
 12 14  1  0
 12 15  1  0
 17 18  1  0
 17 19  1  0
 17 20  1  0
M  CHG  1   8   1
M  END
>  <PDB_ID>  (366) 
pdb1ii6

>  <RESIDUE_NAME>  (366) 
LYS   MET

>  <FRAG_NAME>  (366) 
ETAM   MSM

>  <FRAG_ATOM_NUM>  (366) 
fragi: 11  fragj: 9

>  <atom.prop.CHAIN_ID>  (366) 
A A A A A A A A A A A Z Z Z Z Z Z Z Z Z

>  <atom.prop.IS_HEAVY_ATOM>  (366) 
1 0 0 0 1 0 0 1 0 0 0 1 0 0 0 1 1 0 0 0

>  <DIFUSE_FUNC_ATOM>  (366) 
n/a

>  <FINAL_SINGLE_POINT_ENERGY>  (366) 
0

>  <NONCOV_INTER_ENERGY_QM>  (366) 
0

>  <FF_Energy>  (366) 
8.42

>  <QM_Energy>  (366) 
3.07

>  <source>  (366) 
ETAM_MSM

>  <Index>  (366) 
2015

$$$$
ETAM-pdb2j7u-A-LYS-595:MSM-pdb2j7u-A-MET-273
     RDKit          3D

 20 18  0  0  0  0  0  0  0  0999 V2000
    1.2419    0.8698   -0.0000 C   0  0  0  0  0  0  0  0  0  0  0  0
    1.2506    1.4122    0.8328 H   0  0  0  0  0  0  0  0  0  0  0  0
    1.2177    1.4594   -0.7993 H   0  0  0  0  0  0  0  0  0  0  0  0
    2.1451    0.2607   -0.0351 H   0  0  0  0  0  0  0  0  0  0  0  0
    0.0000    0.0000    0.0000 C   0  0  0  0  0  0  0  0  0  0  0  0
    0.0068   -0.5814   -0.8166 H   0  0  0  0  0  0  0  0  0  0  0  0
    0.0060   -0.5813    0.8166 H   0  0  0  0  0  0  0  0  0  0  0  0
   -1.2419    0.8256   -0.0000 N   0  0  0  0  0  4  0  0  0  0  0  0
   -1.7019    0.7305    0.8821 H   0  0  0  0  0  0  0  0  0  0  0  0
   -1.0016    1.7831   -0.1523 H   0  0  0  0  0  0  0  0  0  0  0  0
   -1.8474    0.5109   -0.7295 H   0  0  0  0  0  0  0  0  0  0  0  0
   -5.0882    0.0170   -2.7255 C   0  0  0  0  0  0  0  0  0  0  0  0
   -5.3479    0.9597   -3.0293 H   0  0  0  0  0  0  0  0  0  0  0  0
   -5.4263   -0.0683   -1.7630 H   0  0  0  0  0  0  0  0  0  0  0  0
   -5.6223   -0.7039   -3.3445 H   0  0  0  0  0  0  0  0  0  0  0  0
   -3.2976   -0.2064   -2.7967 S   0  0  0  0  0  0  0  0  0  0  0  0
   -3.0800   -1.6043   -1.6923 C   0  0  0  0  0  0  0  0  0  0  0  0
   -3.8983   -2.1793   -1.7173 H   0  0  0  0  0  0  0  0  0  0  0  0
   -2.2866   -2.1400   -1.9835 H   0  0  0  0  0  0  0  0  0  0  0  0
   -2.9338   -1.2731   -0.7596 H   0  0  0  0  0  0  0  0  0  0  0  0
  1  5  1  0
  5  8  1  0
  1  2  1  0
  1  3  1  0
  1  4  1  0
  5  6  1  0
  5  7  1  0
  8  9  1  0
  8 10  1  0
  8 11  1  0
 12 16  1  0
 16 17  1  0
 12 13  1  0
 12 14  1  0
 12 15  1  0
 17 18  1  0
 17 19  1  0
 17 20  1  0
M  CHG  1   8   1
M  END
>  <PDB_ID>  (367) 
pdb2j7u

>  <RESIDUE_NAME>  (367) 
LYS   MET

>  <FRAG_NAME>  (367) 
ETAM   MSM

>  <FRAG_ATOM_NUM>  (367) 
fragi: 11  fragj: 9

>  <atom.prop.CHAIN_ID>  (367) 
A A A A A A A A A A A Z Z Z Z Z Z Z Z Z

>  <atom.prop.IS_HEAVY_ATOM>  (367) 
1 0 0 0 1 0 0 1 0 0 0 1 0 0 0 1 1 0 0 0

>  <DIFUSE_FUNC_ATOM>  (367) 
n/a

>  <FINAL_SINGLE_POINT_ENERGY>  (367) 
0

>  <NONCOV_INTER_ENERGY_QM>  (367) 
0

>  <FF_Energy>  (367) 
-3.67

>  <QM_Energy>  (367) 
-11.03

>  <source>  (367) 
ETAM_MSM

>  <Index>  (367) 
2020

$$$$
ETAM-pdb1ipb-A-LYS-49:MSM-pdb1ipb-A-MET-86
     RDKit          3D

 20 18  0  0  0  0  0  0  0  0999 V2000
    1.2496    0.8677    0.0000 C   0  0  0  0  0  0  0  0  0  0  0  0
    1.2215    1.4618    0.7926 H   0  0  0  0  0  0  0  0  0  0  0  0
    1.2666    1.3961   -0.8381 H   0  0  0  0  0  0  0  0  0  0  0  0
    2.1444    0.2472    0.0506 H   0  0  0  0  0  0  0  0  0  0  0  0
    0.0000    0.0000    0.0000 C   0  0  0  0  0  0  0  0  0  0  0  0
    0.0119   -0.5868   -0.8165 H   0  0  0  0  0  0  0  0  0  0  0  0
    0.0112   -0.5872    0.8160 H   0  0  0  0  0  0  0  0  0  0  0  0
   -1.2496    0.8104    0.0000 N   0  0  0  0  0  4  0  0  0  0  0  0
   -1.0725    1.6911    0.4377 H   0  0  0  0  0  0  0  0  0  0  0  0
   -1.5477    0.9587   -0.9425 H   0  0  0  0  0  0  0  0  0  0  0  0
   -1.9607    0.3214    0.5037 H   0  0  0  0  0  0  0  0  0  0  0  0
   -4.2966    4.4211   -0.3028 C   0  0  0  0  0  0  0  0  0  0  0  0
   -5.2694    4.6854   -0.1188 H   0  0  0  0  0  0  0  0  0  0  0  0
   -4.0223    4.9427   -1.1407 H   0  0  0  0  0  0  0  0  0  0  0  0
   -3.6832    4.7585    0.5327 H   0  0  0  0  0  0  0  0  0  0  0  0
   -4.1640    2.6374   -0.5922 S   0  0  0  0  0  0  0  0  0  0  0  0
   -2.7407    2.5984   -1.7391 C   0  0  0  0  0  0  0  0  0  0  0  0
   -2.5503    3.5275   -2.0407 H   0  0  0  0  0  0  0  0  0  0  0  0
   -1.9547    2.2239   -1.2576 H   0  0  0  0  0  0  0  0  0  0  0  0
   -2.9756    2.0237   -2.5170 H   0  0  0  0  0  0  0  0  0  0  0  0
  1  5  1  0
  5  8  1  0
  1  2  1  0
  1  3  1  0
  1  4  1  0
  5  6  1  0
  5  7  1  0
  8  9  1  0
  8 10  1  0
  8 11  1  0
 12 16  1  0
 16 17  1  0
 12 13  1  0
 12 14  1  0
 12 15  1  0
 17 18  1  0
 17 19  1  0
 17 20  1  0
M  CHG  1   8   1
M  END
>  <PDB_ID>  (368) 
pdb1ipb

>  <RESIDUE_NAME>  (368) 
LYS   MET

>  <FRAG_NAME>  (368) 
ETAM   MSM

>  <FRAG_ATOM_NUM>  (368) 
fragi: 11  fragj: 9

>  <atom.prop.CHAIN_ID>  (368) 
A A A A A A A A A A A Z Z Z Z Z Z Z Z Z

>  <atom.prop.IS_HEAVY_ATOM>  (368) 
1 0 0 0 1 0 0 1 0 0 0 1 0 0 0 1 1 0 0 0

>  <DIFUSE_FUNC_ATOM>  (368) 
n/a

>  <FINAL_SINGLE_POINT_ENERGY>  (368) 
0

>  <NONCOV_INTER_ENERGY_QM>  (368) 
0

>  <FF_Energy>  (368) 
16.1

>  <QM_Energy>  (368) 
3.81

>  <source>  (368) 
ETAM_MSM

>  <Index>  (368) 
2044

$$$$
ETAM-pdb1iq8-B-LYS-160:MSM-pdb1iq8-B-MET-7
     RDKit          3D

 20 18  0  0  0  0  0  0  0  0999 V2000
    1.2361    0.8771    0.0000 C   0  0  0  0  0  0  0  0  0  0  0  0
    1.1534    1.5512   -0.7355 H   0  0  0  0  0  0  0  0  0  0  0  0
    2.0394    0.3029   -0.1653 H   0  0  0  0  0  0  0  0  0  0  0  0
    1.3836    1.4112    0.9386 H   0  0  0  0  0  0  0  0  0  0  0  0
    0.0000    0.0000    0.0000 C   0  0  0  0  0  0  0  0  0  0  0  0
    0.0107   -0.5794   -0.8160 H   0  0  0  0  0  0  0  0  0  0  0  0
    0.0103   -0.5792    0.8164 H   0  0  0  0  0  0  0  0  0  0  0  0
   -1.2361    0.8236   -0.0000 N   0  0  0  0  0  4  0  0  0  0  0  0
   -1.4489    1.1053    0.9358 H   0  0  0  0  0  0  0  0  0  0  0  0
   -1.0960    1.6339   -0.5685 H   0  0  0  0  0  0  0  0  0  0  0  0
   -1.9950    0.2858   -0.3672 H   0  0  0  0  0  0  0  0  0  0  0  0
   -4.6985    5.4216    0.5893 C   0  0  0  0  0  0  0  0  0  0  0  0
   -4.9438    6.1922    1.2206 H   0  0  0  0  0  0  0  0  0  0  0  0
   -5.4370    4.7205    0.7113 H   0  0  0  0  0  0  0  0  0  0  0  0
   -4.7331    5.7888   -0.4365 H   0  0  0  0  0  0  0  0  0  0  0  0
   -3.0811    4.7228    1.0407 S   0  0  0  0  0  0  0  0  0  0  0  0
   -3.3243    2.9979    0.5881 C   0  0  0  0  0  0  0  0  0  0  0  0
   -3.8191    2.9493   -0.2794 H   0  0  0  0  0  0  0  0  0  0  0  0
   -2.4348    2.5519    0.4922 H   0  0  0  0  0  0  0  0  0  0  0  0
   -3.8541    2.5395    1.3012 H   0  0  0  0  0  0  0  0  0  0  0  0
  1  5  1  0
  5  8  1  0
  1  2  1  0
  1  3  1  0
  1  4  1  0
  5  6  1  0
  5  7  1  0
  8  9  1  0
  8 10  1  0
  8 11  1  0
 12 16  1  0
 16 17  1  0
 12 13  1  0
 12 14  1  0
 12 15  1  0
 17 18  1  0
 17 19  1  0
 17 20  1  0
M  CHG  1   8   1
M  END
>  <PDB_ID>  (369) 
pdb1iq8

>  <RESIDUE_NAME>  (369) 
LYS   MET

>  <FRAG_NAME>  (369) 
ETAM   MSM

>  <FRAG_ATOM_NUM>  (369) 
fragi: 11  fragj: 9

>  <atom.prop.CHAIN_ID>  (369) 
A A A A A A A A A A A Z Z Z Z Z Z Z Z Z

>  <atom.prop.IS_HEAVY_ATOM>  (369) 
1 0 0 0 1 0 0 1 0 0 0 1 0 0 0 1 1 0 0 0

>  <DIFUSE_FUNC_ATOM>  (369) 
n/a

>  <FINAL_SINGLE_POINT_ENERGY>  (369) 
0

>  <NONCOV_INTER_ENERGY_QM>  (369) 
0

>  <FF_Energy>  (369) 
7.99

>  <QM_Energy>  (369) 
2.7

>  <source>  (369) 
ETAM_MSM

>  <Index>  (369) 
2049

$$$$
ETAM-pdb2jj6-B-LYS-133:MSM-pdb2jj6-B-MET-20
     RDKit          3D

 20 18  0  0  0  0  0  0  0  0999 V2000
    1.2336    0.8760   -0.0000 C   0  0  0  0  0  0  0  0  0  0  0  0
    1.2498    1.4044    0.8452 H   0  0  0  0  0  0  0  0  0  0  0  0
    1.1890    1.4888   -0.7853 H   0  0  0  0  0  0  0  0  0  0  0  0
    2.1469    0.2845   -0.0638 H   0  0  0  0  0  0  0  0  0  0  0  0
    0.0000    0.0000    0.0000 C   0  0  0  0  0  0  0  0  0  0  0  0
    0.0068   -0.5768   -0.8164 H   0  0  0  0  0  0  0  0  0  0  0  0
    0.0067   -0.5769    0.8164 H   0  0  0  0  0  0  0  0  0  0  0  0
   -1.2336    0.8320   -0.0000 N   0  0  0  0  0  4  0  0  0  0  0  0
   -2.0175    0.2630   -0.2449 H   0  0  0  0  0  0  0  0  0  0  0  0
   -1.3726    1.2188    0.9114 H   0  0  0  0  0  0  0  0  0  0  0  0
   -1.1359    1.5708   -0.6659 H   0  0  0  0  0  0  0  0  0  0  0  0
    1.7486    1.8062   -3.6723 C   0  0  0  0  0  0  0  0  0  0  0  0
    2.7263    2.1252   -3.6915 H   0  0  0  0  0  0  0  0  0  0  0  0
    1.4485    1.8097   -4.6567 H   0  0  0  0  0  0  0  0  0  0  0  0
    1.7314    0.7776   -3.3121 H   0  0  0  0  0  0  0  0  0  0  0  0
    0.7331    2.9197   -2.6913 S   0  0  0  0  0  0  0  0  0  0  0  0
    1.4450    4.5244   -3.1519 C   0  0  0  0  0  0  0  0  0  0  0  0
    1.1887    5.2018   -2.4663 H   0  0  0  0  0  0  0  0  0  0  0  0
    2.4374    4.4393   -3.1919 H   0  0  0  0  0  0  0  0  0  0  0  0
    1.0897    4.7919   -4.0446 H   0  0  0  0  0  0  0  0  0  0  0  0
  1  5  1  0
  5  8  1  0
  1  2  1  0
  1  3  1  0
  1  4  1  0
  5  6  1  0
  5  7  1  0
  8  9  1  0
  8 10  1  0
  8 11  1  0
 12 16  1  0
 16 17  1  0
 12 13  1  0
 12 14  1  0
 12 15  1  0
 17 18  1  0
 17 19  1  0
 17 20  1  0
M  CHG  1   8   1
M  END
>  <PDB_ID>  (370) 
pdb2jj6

>  <RESIDUE_NAME>  (370) 
LYS   MET

>  <FRAG_NAME>  (370) 
ETAM   MSM

>  <FRAG_ATOM_NUM>  (370) 
fragi: 11  fragj: 9

>  <atom.prop.CHAIN_ID>  (370) 
A A A A A A A A A A A Z Z Z Z Z Z Z Z Z

>  <atom.prop.IS_HEAVY_ATOM>  (370) 
1 0 0 0 1 0 0 1 0 0 0 1 0 0 0 1 1 0 0 0

>  <DIFUSE_FUNC_ATOM>  (370) 
n/a

>  <FINAL_SINGLE_POINT_ENERGY>  (370) 
0

>  <NONCOV_INTER_ENERGY_QM>  (370) 
0

>  <FF_Energy>  (370) 
-1.39

>  <QM_Energy>  (370) 
-9.14

>  <source>  (370) 
ETAM_MSM

>  <Index>  (370) 
2073

$$$$
ETAM-pdb2jjz-C-LYS-121:MSM-pdb2jjz-C-MET-125
     RDKit          3D

 20 18  0  0  0  0  0  0  0  0999 V2000
    1.2109    0.8996   -0.0000 C   0  0  0  0  0  0  0  0  0  0  0  0
    1.4442    1.1162    0.9446 H   0  0  0  0  0  0  0  0  0  0  0  0
    0.9845    1.7344   -0.4964 H   0  0  0  0  0  0  0  0  0  0  0  0
    2.0599    0.4117   -0.4788 H   0  0  0  0  0  0  0  0  0  0  0  0
    0.0000    0.0000    0.0000 C   0  0  0  0  0  0  0  0  0  0  0  0
    0.0059   -0.5592   -0.8161 H   0  0  0  0  0  0  0  0  0  0  0  0
    0.0054   -0.5603    0.8164 H   0  0  0  0  0  0  0  0  0  0  0  0
   -1.2109    0.8593    0.0000 N   0  0  0  0  0  4  0  0  0  0  0  0
   -1.0229    1.7008   -0.5068 H   0  0  0  0  0  0  0  0  0  0  0  0
   -1.9670    0.3697   -0.4354 H   0  0  0  0  0  0  0  0  0  0  0  0
   -1.4591    1.0860    0.9425 H   0  0  0  0  0  0  0  0  0  0  0  0
    1.9637   -3.5583   -3.4836 C   0  0  0  0  0  0  0  0  0  0  0  0
    1.5753   -4.4596   -3.2350 H   0  0  0  0  0  0  0  0  0  0  0  0
    2.6136   -3.2938   -2.7541 H   0  0  0  0  0  0  0  0  0  0  0  0
    2.5101   -3.6590   -4.4214 H   0  0  0  0  0  0  0  0  0  0  0  0
    0.6775   -2.3321   -3.6775 S   0  0  0  0  0  0  0  0  0  0  0  0
   -0.0576   -2.3730   -2.0605 C   0  0  0  0  0  0  0  0  0  0  0  0
   -0.5790   -1.5307   -1.8995 H   0  0  0  0  0  0  0  0  0  0  0  0
   -0.6769   -3.1585   -1.9852 H   0  0  0  0  0  0  0  0  0  0  0  0
    0.6567   -2.4533   -1.3608 H   0  0  0  0  0  0  0  0  0  0  0  0
  1  5  1  0
  5  8  1  0
  1  2  1  0
  1  3  1  0
  1  4  1  0
  5  6  1  0
  5  7  1  0
  8  9  1  0
  8 10  1  0
  8 11  1  0
 12 16  1  0
 16 17  1  0
 12 13  1  0
 12 14  1  0
 12 15  1  0
 17 18  1  0
 17 19  1  0
 17 20  1  0
M  CHG  1   8   1
M  END
>  <PDB_ID>  (371) 
pdb2jjz

>  <RESIDUE_NAME>  (371) 
LYS   MET

>  <FRAG_NAME>  (371) 
ETAM   MSM

>  <FRAG_ATOM_NUM>  (371) 
fragi: 11  fragj: 9

>  <atom.prop.CHAIN_ID>  (371) 
A A A A A A A A A A A Z Z Z Z Z Z Z Z Z

>  <atom.prop.IS_HEAVY_ATOM>  (371) 
1 0 0 0 1 0 0 1 0 0 0 1 0 0 0 1 1 0 0 0

>  <DIFUSE_FUNC_ATOM>  (371) 
n/a

>  <FINAL_SINGLE_POINT_ENERGY>  (371) 
0

>  <NONCOV_INTER_ENERGY_QM>  (371) 
0

>  <FF_Energy>  (371) 
25.36

>  <QM_Energy>  (371) 
3.99

>  <source>  (371) 
ETAM_MSM

>  <Index>  (371) 
2078

$$$$
ETAM-pdb2jk0-B-LYS-168:MSM-pdb2jk0-B-MET-121
     RDKit          3D

 20 18  0  0  0  0  0  0  0  0999 V2000
    1.2736    0.8331    0.0000 C   0  0  0  0  0  0  0  0  0  0  0  0
    1.3080    1.3645    0.8333 H   0  0  0  0  0  0  0  0  0  0  0  0
    1.2737    1.4154   -0.7985 H   0  0  0  0  0  0  0  0  0  0  0  0
    2.1501    0.1861   -0.0379 H   0  0  0  0  0  0  0  0  0  0  0  0
    0.0000    0.0000    0.0000 C   0  0  0  0  0  0  0  0  0  0  0  0
    0.0026   -0.6026   -0.8158 H   0  0  0  0  0  0  0  0  0  0  0  0
    0.0023   -0.6022    0.8163 H   0  0  0  0  0  0  0  0  0  0  0  0
   -1.2736    0.7975    0.0000 N   0  0  0  0  0  4  0  0  0  0  0  0
   -1.0498    1.7666   -0.0692 H   0  0  0  0  0  0  0  0  0  0  0  0
   -1.8297    0.5208   -0.7802 H   0  0  0  0  0  0  0  0  0  0  0  0
   -1.7670    0.6218    0.8492 H   0  0  0  0  0  0  0  0  0  0  0  0
   -1.5629   -1.6794    4.8748 C   0  0  0  0  0  0  0  0  0  0  0  0
   -1.0996   -1.1050    5.5902 H   0  0  0  0  0  0  0  0  0  0  0  0
   -1.0645   -2.5785    4.8883 H   0  0  0  0  0  0  0  0  0  0  0  0
   -2.5903   -1.8552    5.1936 H   0  0  0  0  0  0  0  0  0  0  0  0
   -1.4392   -0.9030    3.2495 S   0  0  0  0  0  0  0  0  0  0  0  0
   -2.3491   -2.0567    2.2385 C   0  0  0  0  0  0  0  0  0  0  0  0
   -2.1268   -2.9956    2.5103 H   0  0  0  0  0  0  0  0  0  0  0  0
   -3.3336   -1.9056    2.3526 H   0  0  0  0  0  0  0  0  0  0  0  0
   -2.1069   -1.9276    1.2744 H   0  0  0  0  0  0  0  0  0  0  0  0
  1  5  1  0
  5  8  1  0
  1  2  1  0
  1  3  1  0
  1  4  1  0
  5  6  1  0
  5  7  1  0
  8  9  1  0
  8 10  1  0
  8 11  1  0
 12 16  1  0
 16 17  1  0
 12 13  1  0
 12 14  1  0
 12 15  1  0
 17 18  1  0
 17 19  1  0
 17 20  1  0
M  CHG  1   8   1
M  END
>  <PDB_ID>  (372) 
pdb2jk0

>  <RESIDUE_NAME>  (372) 
LYS   MET

>  <FRAG_NAME>  (372) 
ETAM   MSM

>  <FRAG_ATOM_NUM>  (372) 
fragi: 11  fragj: 9

>  <atom.prop.CHAIN_ID>  (372) 
A A A A A A A A A A A Z Z Z Z Z Z Z Z Z

>  <atom.prop.IS_HEAVY_ATOM>  (372) 
1 0 0 0 1 0 0 1 0 0 0 1 0 0 0 1 1 0 0 0

>  <DIFUSE_FUNC_ATOM>  (372) 
n/a

>  <FINAL_SINGLE_POINT_ENERGY>  (372) 
0

>  <NONCOV_INTER_ENERGY_QM>  (372) 
0

>  <FF_Energy>  (372) 
-4.41

>  <QM_Energy>  (372) 
-9.59

>  <source>  (372) 
ETAM_MSM

>  <Index>  (372) 
2083

$$$$
ETAM-pdb2je6-I-LYS-163:MSM-pdb2je6-I-MET-160
     RDKit          3D

 20 18  0  0  0  0  0  0  0  0999 V2000
    1.2616    0.8528    0.0000 C   0  0  0  0  0  0  0  0  0  0  0  0
    1.3758    1.2495    0.9022 H   0  0  0  0  0  0  0  0  0  0  0  0
    1.1640    1.5624   -0.6867 H   0  0  0  0  0  0  0  0  0  0  0  0
    2.1387    0.2499   -0.2352 H   0  0  0  0  0  0  0  0  0  0  0  0
    0.0000    0.0000    0.0000 C   0  0  0  0  0  0  0  0  0  0  0  0
    0.0115   -0.5964   -0.8167 H   0  0  0  0  0  0  0  0  0  0  0  0
    0.0108   -0.5962    0.8164 H   0  0  0  0  0  0  0  0  0  0  0  0
   -1.2616    0.7961   -0.0000 N   0  0  0  0  0  4  0  0  0  0  0  0
   -1.7478    0.6440   -0.8593 H   0  0  0  0  0  0  0  0  0  0  0  0
   -1.8338    0.5076    0.7663 H   0  0  0  0  0  0  0  0  0  0  0  0
   -1.0398    1.7651    0.0934 H   0  0  0  0  0  0  0  0  0  0  0  0
    1.5876    5.3740   -1.1404 C   0  0  0  0  0  0  0  0  0  0  0  0
    1.5327    6.3524   -0.9076 H   0  0  0  0  0  0  0  0  0  0  0  0
    1.7795    5.2939   -2.1262 H   0  0  0  0  0  0  0  0  0  0  0  0
    2.3963    4.9117   -0.5743 H   0  0  0  0  0  0  0  0  0  0  0  0
    0.0394    4.5353   -0.7247 S   0  0  0  0  0  0  0  0  0  0  0  0
   -1.0981    5.9096   -0.7666 C   0  0  0  0  0  0  0  0  0  0  0  0
   -1.8140    5.7363   -1.4461 H   0  0  0  0  0  0  0  0  0  0  0  0
   -1.5214    6.0272    0.1344 H   0  0  0  0  0  0  0  0  0  0  0  0
   -0.6078    6.7485   -1.0115 H   0  0  0  0  0  0  0  0  0  0  0  0
  1  5  1  0
  5  8  1  0
  1  2  1  0
  1  3  1  0
  1  4  1  0
  5  6  1  0
  5  7  1  0
  8  9  1  0
  8 10  1  0
  8 11  1  0
 12 16  1  0
 16 17  1  0
 12 13  1  0
 12 14  1  0
 12 15  1  0
 17 18  1  0
 17 19  1  0
 17 20  1  0
M  CHG  1   8   1
M  END
>  <PDB_ID>  (373) 
pdb2je6

>  <RESIDUE_NAME>  (373) 
LYS   MET

>  <FRAG_NAME>  (373) 
ETAM   MSM

>  <FRAG_ATOM_NUM>  (373) 
fragi: 11  fragj: 9

>  <atom.prop.CHAIN_ID>  (373) 
A A A A A A A A A A A Z Z Z Z Z Z Z Z Z

>  <atom.prop.IS_HEAVY_ATOM>  (373) 
1 0 0 0 1 0 0 1 0 0 0 1 0 0 0 1 1 0 0 0

>  <DIFUSE_FUNC_ATOM>  (373) 
n/a

>  <FINAL_SINGLE_POINT_ENERGY>  (373) 
0

>  <NONCOV_INTER_ENERGY_QM>  (373) 
0

>  <FF_Energy>  (373) 
-4.9

>  <QM_Energy>  (373) 
-10.78

>  <source>  (373) 
ETAM_MSM

>  <Index>  (373) 
2084

$$$$
ETAM-pdb2jk0-F-LYS-168:MSM-pdb2jk0-F-MET-121
     RDKit          3D

 20 18  0  0  0  0  0  0  0  0999 V2000
    1.2122    0.9097    0.0000 C   0  0  0  0  0  0  0  0  0  0  0  0
    1.3388    1.2619    0.9248 H   0  0  0  0  0  0  0  0  0  0  0  0
    1.0368    1.6629   -0.6289 H   0  0  0  0  0  0  0  0  0  0  0  0
    2.1082    0.3732   -0.3121 H   0  0  0  0  0  0  0  0  0  0  0  0
    0.0000    0.0000    0.0000 C   0  0  0  0  0  0  0  0  0  0  0  0
    0.0166   -0.5619   -0.8161 H   0  0  0  0  0  0  0  0  0  0  0  0
    0.0156   -0.5614    0.8165 H   0  0  0  0  0  0  0  0  0  0  0  0
   -1.2122    0.8431   -0.0000 N   0  0  0  0  0  4  0  0  0  0  0  0
   -1.8238    0.5545    0.7392 H   0  0  0  0  0  0  0  0  0  0  0  0
   -0.9566    1.8020    0.1379 H   0  0  0  0  0  0  0  0  0  0  0  0
   -1.6873    0.7515   -0.8766 H   0  0  0  0  0  0  0  0  0  0  0  0
   -1.9787   -0.6787    4.9983 C   0  0  0  0  0  0  0  0  0  0  0  0
   -1.6000    0.0528    5.5961 H   0  0  0  0  0  0  0  0  0  0  0  0
   -1.4126   -1.5097    5.1600 H   0  0  0  0  0  0  0  0  0  0  0  0
   -3.0028   -0.8871    5.3082 H   0  0  0  0  0  0  0  0  0  0  0  0
   -1.9075   -0.1856    3.2594 S   0  0  0  0  0  0  0  0  0  0  0  0
   -2.2315   -1.7668    2.4483 C   0  0  0  0  0  0  0  0  0  0  0  0
   -3.1513   -1.7538    2.0595 H   0  0  0  0  0  0  0  0  0  0  0  0
   -1.5601   -1.9069    1.7226 H   0  0  0  0  0  0  0  0  0  0  0  0
   -2.1592   -2.5014    3.1203 H   0  0  0  0  0  0  0  0  0  0  0  0
  1  5  1  0
  5  8  1  0
  1  2  1  0
  1  3  1  0
  1  4  1  0
  5  6  1  0
  5  7  1  0
  8  9  1  0
  8 10  1  0
  8 11  1  0
 12 16  1  0
 16 17  1  0
 12 13  1  0
 12 14  1  0
 12 15  1  0
 17 18  1  0
 17 19  1  0
 17 20  1  0
M  CHG  1   8   1
M  END
>  <PDB_ID>  (374) 
pdb2jk0

>  <RESIDUE_NAME>  (374) 
LYS   MET

>  <FRAG_NAME>  (374) 
ETAM   MSM

>  <FRAG_ATOM_NUM>  (374) 
fragi: 11  fragj: 9

>  <atom.prop.CHAIN_ID>  (374) 
A A A A A A A A A A A Z Z Z Z Z Z Z Z Z

>  <atom.prop.IS_HEAVY_ATOM>  (374) 
1 0 0 0 1 0 0 1 0 0 0 1 0 0 0 1 1 0 0 0

>  <DIFUSE_FUNC_ATOM>  (374) 
n/a

>  <FINAL_SINGLE_POINT_ENERGY>  (374) 
0

>  <NONCOV_INTER_ENERGY_QM>  (374) 
0

>  <FF_Energy>  (374) 
-4.98

>  <QM_Energy>  (374) 
-10.33

>  <source>  (374) 
ETAM_MSM

>  <Index>  (374) 
2088

$$$$
ETAM-pdb1itw-C-LYS-425:MSM-pdb1itw-C-MET-458
     RDKit          3D

 20 18  0  0  0  0  0  0  0  0999 V2000
    1.2412    0.8792    0.0000 C   0  0  0  0  0  0  0  0  0  0  0  0
    2.0432    0.2958    0.0674 H   0  0  0  0  0  0  0  0  0  0  0  0
    1.1937    1.4953    0.7785 H   0  0  0  0  0  0  0  0  0  0  0  0
    1.3107    1.4690   -0.9140 H   0  0  0  0  0  0  0  0  0  0  0  0
    0.0000    0.0000    0.0000 C   0  0  0  0  0  0  0  0  0  0  0  0
    0.0102   -0.5780   -0.8163 H   0  0  0  0  0  0  0  0  0  0  0  0
    0.0094   -0.5779    0.8164 H   0  0  0  0  0  0  0  0  0  0  0  0
   -1.2412    0.8258   -0.0000 N   0  0  0  0  0  4  0  0  0  0  0  0
   -1.1725    1.5258   -0.7104 H   0  0  0  0  0  0  0  0  0  0  0  0
   -2.0288    0.2381   -0.1823 H   0  0  0  0  0  0  0  0  0  0  0  0
   -1.3471    1.2632    0.8923 H   0  0  0  0  0  0  0  0  0  0  0  0
    4.4209   -2.1645    0.5039 C   0  0  0  0  0  0  0  0  0  0  0  0
    3.4770   -2.3064    0.8916 H   0  0  0  0  0  0  0  0  0  0  0  0
    4.9129   -3.0522    0.6781 H   0  0  0  0  0  0  0  0  0  0  0  0
    4.3309   -2.0288   -0.5739 H   0  0  0  0  0  0  0  0  0  0  0  0
    5.2576   -0.7969    1.3515 S   0  0  0  0  0  0  0  0  0  0  0  0
    3.8681    0.2001    1.8364 C   0  0  0  0  0  0  0  0  0  0  0  0
    3.2560   -0.3296    2.4288 H   0  0  0  0  0  0  0  0  0  0  0  0
    4.1857    1.0099    2.3366 H   0  0  0  0  0  0  0  0  0  0  0  0
    3.3595    0.4967    1.0239 H   0  0  0  0  0  0  0  0  0  0  0  0
  1  5  1  0
  5  8  1  0
  1  2  1  0
  1  3  1  0
  1  4  1  0
  5  6  1  0
  5  7  1  0
  8  9  1  0
  8 10  1  0
  8 11  1  0
 12 16  1  0
 16 17  1  0
 12 13  1  0
 12 14  1  0
 12 15  1  0
 17 18  1  0
 17 19  1  0
 17 20  1  0
M  CHG  1   8   1
M  END
>  <PDB_ID>  (375) 
pdb1itw

>  <RESIDUE_NAME>  (375) 
LYS   MET

>  <FRAG_NAME>  (375) 
ETAM   MSM

>  <FRAG_ATOM_NUM>  (375) 
fragi: 11  fragj: 9

>  <atom.prop.CHAIN_ID>  (375) 
A A A A A A A A A A A Z Z Z Z Z Z Z Z Z

>  <atom.prop.IS_HEAVY_ATOM>  (375) 
1 0 0 0 1 0 0 1 0 0 0 1 0 0 0 1 1 0 0 0

>  <DIFUSE_FUNC_ATOM>  (375) 
n/a

>  <FINAL_SINGLE_POINT_ENERGY>  (375) 
0

>  <NONCOV_INTER_ENERGY_QM>  (375) 
0

>  <FF_Energy>  (375) 
11.7

>  <QM_Energy>  (375) 
4.64

>  <source>  (375) 
ETAM_MSM

>  <Index>  (375) 
2094

$$$$
ETAM-pdb1ivy-A-LYS-414:MSM-pdb1ivy-A-MET-391
     RDKit          3D

 20 18  0  0  0  0  0  0  0  0999 V2000
    1.2753    0.8248   -0.0000 C   0  0  0  0  0  0  0  0  0  0  0  0
    1.2503    1.4461   -0.7826 H   0  0  0  0  0  0  0  0  0  0  0  0
    2.0527    0.2036   -0.0884 H   0  0  0  0  0  0  0  0  0  0  0  0
    1.3884    1.4090    0.9133 H   0  0  0  0  0  0  0  0  0  0  0  0
    0.0000    0.0000    0.0000 C   0  0  0  0  0  0  0  0  0  0  0  0
    0.0181   -0.6206   -0.8160 H   0  0  0  0  0  0  0  0  0  0  0  0
    0.0172   -0.6202    0.8167 H   0  0  0  0  0  0  0  0  0  0  0  0
   -1.2753    0.7513   -0.0000 N   0  0  0  0  0  4  0  0  0  0  0  0
   -1.3991    1.2015   -0.8852 H   0  0  0  0  0  0  0  0  0  0  0  0
   -2.0357    0.1212    0.1610 H   0  0  0  0  0  0  0  0  0  0  0  0
   -1.2582    1.4427    0.7238 H   0  0  0  0  0  0  0  0  0  0  0  0
   -5.4541   -1.8010    1.6552 C   0  0  0  0  0  0  0  0  0  0  0  0
   -4.7297   -2.5117    1.7567 H   0  0  0  0  0  0  0  0  0  0  0  0
   -6.1212   -2.1671    0.9753 H   0  0  0  0  0  0  0  0  0  0  0  0
   -5.9564   -1.6620    2.6124 H   0  0  0  0  0  0  0  0  0  0  0  0
   -4.7384   -0.2523    1.0643 S   0  0  0  0  0  0  0  0  0  0  0  0
   -5.2117   -0.3203   -0.6994 C   0  0  0  0  0  0  0  0  0  0  0  0
   -6.1357   -0.6842   -0.7668 H   0  0  0  0  0  0  0  0  0  0  0  0
   -5.1756    0.6015   -1.0741 H   0  0  0  0  0  0  0  0  0  0  0  0
   -4.5711   -0.9131   -1.1778 H   0  0  0  0  0  0  0  0  0  0  0  0
  1  5  1  0
  5  8  1  0
  1  2  1  0
  1  3  1  0
  1  4  1  0
  5  6  1  0
  5  7  1  0
  8  9  1  0
  8 10  1  0
  8 11  1  0
 12 16  1  0
 16 17  1  0
 12 13  1  0
 12 14  1  0
 12 15  1  0
 17 18  1  0
 17 19  1  0
 17 20  1  0
M  CHG  1   8   1
M  END
>  <PDB_ID>  (376) 
pdb1ivy

>  <RESIDUE_NAME>  (376) 
LYS   MET

>  <FRAG_NAME>  (376) 
ETAM   MSM

>  <FRAG_ATOM_NUM>  (376) 
fragi: 11  fragj: 9

>  <atom.prop.CHAIN_ID>  (376) 
A A A A A A A A A A A Z Z Z Z Z Z Z Z Z

>  <atom.prop.IS_HEAVY_ATOM>  (376) 
1 0 0 0 1 0 0 1 0 0 0 1 0 0 0 1 1 0 0 0

>  <DIFUSE_FUNC_ATOM>  (376) 
n/a

>  <FINAL_SINGLE_POINT_ENERGY>  (376) 
0

>  <NONCOV_INTER_ENERGY_QM>  (376) 
0

>  <FF_Energy>  (376) 
-4.2

>  <QM_Energy>  (376) 
-11.34

>  <source>  (376) 
ETAM_MSM

>  <Index>  (376) 
2103

$$$$
ETAM-pdb2jlq-A-LYS-608:MSM-pdb2jlq-A-MET-605
     RDKit          3D

 20 18  0  0  0  0  0  0  0  0999 V2000
    1.2507    0.8683   -0.0000 C   0  0  0  0  0  0  0  0  0  0  0  0
    2.0473    0.2752    0.0443 H   0  0  0  0  0  0  0  0  0  0  0  0
    1.2199    1.4671    0.7931 H   0  0  0  0  0  0  0  0  0  0  0  0
    1.3136    1.4771   -0.9019 H   0  0  0  0  0  0  0  0  0  0  0  0
    0.0000    0.0000    0.0000 C   0  0  0  0  0  0  0  0  0  0  0  0
    0.0112   -0.5858   -0.8163 H   0  0  0  0  0  0  0  0  0  0  0  0
    0.0110   -0.5856    0.8162 H   0  0  0  0  0  0  0  0  0  0  0  0
   -1.2507    0.8113   -0.0000 N   0  0  0  0  0  4  0  0  0  0  0  0
   -1.8752    0.4554    0.6937 H   0  0  0  0  0  0  0  0  0  0  0  0
   -1.0265    1.7630    0.2057 H   0  0  0  0  0  0  0  0  0  0  0  0
   -1.6809    0.7545   -0.8994 H   0  0  0  0  0  0  0  0  0  0  0  0
   -1.6997    3.7384    3.5052 C   0  0  0  0  0  0  0  0  0  0  0  0
   -2.1018    3.5142    4.4250 H   0  0  0  0  0  0  0  0  0  0  0  0
   -2.5032    3.9934    2.9164 H   0  0  0  0  0  0  0  0  0  0  0  0
   -1.0604    4.6144    3.6144 H   0  0  0  0  0  0  0  0  0  0  0  0
   -0.8382    2.3072    2.8203 S   0  0  0  0  0  0  0  0  0  0  0  0
    0.4121    2.0191    4.0704 C   0  0  0  0  0  0  0  0  0  0  0  0
    1.2947    2.3611    3.7469 H   0  0  0  0  0  0  0  0  0  0  0  0
    0.1603    2.4965    4.9138 H   0  0  0  0  0  0  0  0  0  0  0  0
    0.4832    1.0374    4.2539 H   0  0  0  0  0  0  0  0  0  0  0  0
  1  5  1  0
  5  8  1  0
  1  2  1  0
  1  3  1  0
  1  4  1  0
  5  6  1  0
  5  7  1  0
  8  9  1  0
  8 10  1  0
  8 11  1  0
 12 16  1  0
 16 17  1  0
 12 13  1  0
 12 14  1  0
 12 15  1  0
 17 18  1  0
 17 19  1  0
 17 20  1  0
M  CHG  1   8   1
M  END
>  <PDB_ID>  (377) 
pdb2jlq

>  <RESIDUE_NAME>  (377) 
LYS   MET

>  <FRAG_NAME>  (377) 
ETAM   MSM

>  <FRAG_ATOM_NUM>  (377) 
fragi: 11  fragj: 9

>  <atom.prop.CHAIN_ID>  (377) 
A A A A A A A A A A A Z Z Z Z Z Z Z Z Z

>  <atom.prop.IS_HEAVY_ATOM>  (377) 
1 0 0 0 1 0 0 1 0 0 0 1 0 0 0 1 1 0 0 0

>  <DIFUSE_FUNC_ATOM>  (377) 
n/a

>  <FINAL_SINGLE_POINT_ENERGY>  (377) 
0

>  <NONCOV_INTER_ENERGY_QM>  (377) 
0

>  <FF_Energy>  (377) 
-5.72

>  <QM_Energy>  (377) 
-14.69

>  <source>  (377) 
ETAM_MSM

>  <Index>  (377) 
2105

$$$$
ETAM-pdb1iwe-A-LYS-48:MSM-pdb1iwe-A-MET-453
     RDKit          3D

 20 18  0  0  0  0  0  0  0  0999 V2000
    1.2508    0.8684    0.0000 C   0  0  0  0  0  0  0  0  0  0  0  0
    1.3661    1.2562    0.9022 H   0  0  0  0  0  0  0  0  0  0  0  0
    1.1453    1.5747   -0.6842 H   0  0  0  0  0  0  0  0  0  0  0  0
    2.1260    0.2656   -0.2424 H   0  0  0  0  0  0  0  0  0  0  0  0
    0.0000    0.0000    0.0000 C   0  0  0  0  0  0  0  0  0  0  0  0
    0.0108   -0.5853   -0.8163 H   0  0  0  0  0  0  0  0  0  0  0  0
    0.0101   -0.5856    0.8163 H   0  0  0  0  0  0  0  0  0  0  0  0
   -1.2508    0.8133   -0.0000 N   0  0  0  0  0  4  0  0  0  0  0  0
   -1.0378    1.7452    0.2889 H   0  0  0  0  0  0  0  0  0  0  0  0
   -1.6353    0.8265   -0.9221 H   0  0  0  0  0  0  0  0  0  0  0  0
   -1.9080    0.4072    0.6333 H   0  0  0  0  0  0  0  0  0  0  0  0
   -0.2814   -0.6153   -3.7975 C   0  0  0  0  0  0  0  0  0  0  0  0
   -0.3669   -0.6186   -2.7712 H   0  0  0  0  0  0  0  0  0  0  0  0
    0.5866   -1.1333   -3.9931 H   0  0  0  0  0  0  0  0  0  0  0  0
   -1.1192   -1.1736   -4.2153 H   0  0  0  0  0  0  0  0  0  0  0  0
   -0.1572    1.0848   -4.4170 S   0  0  0  0  0  0  0  0  0  0  0  0
    0.0614    1.9926   -2.9034 C   0  0  0  0  0  0  0  0  0  0  0  0
    0.5361    1.4229   -2.2275 H   0  0  0  0  0  0  0  0  0  0  0  0
    0.6064    2.8177   -3.0752 H   0  0  0  0  0  0  0  0  0  0  0  0
   -0.8319    2.2614   -2.5337 H   0  0  0  0  0  0  0  0  0  0  0  0
  1  5  1  0
  5  8  1  0
  1  2  1  0
  1  3  1  0
  1  4  1  0
  5  6  1  0
  5  7  1  0
  8  9  1  0
  8 10  1  0
  8 11  1  0
 12 16  1  0
 16 17  1  0
 12 13  1  0
 12 14  1  0
 12 15  1  0
 17 18  1  0
 17 19  1  0
 17 20  1  0
M  CHG  1   8   1
M  END
>  <PDB_ID>  (378) 
pdb1iwe

>  <RESIDUE_NAME>  (378) 
LYS   MET

>  <FRAG_NAME>  (378) 
ETAM   MSM

>  <FRAG_ATOM_NUM>  (378) 
fragi: 11  fragj: 9

>  <atom.prop.CHAIN_ID>  (378) 
A A A A A A A A A A A Z Z Z Z Z Z Z Z Z

>  <atom.prop.IS_HEAVY_ATOM>  (378) 
1 0 0 0 1 0 0 1 0 0 0 1 0 0 0 1 1 0 0 0

>  <DIFUSE_FUNC_ATOM>  (378) 
n/a

>  <FINAL_SINGLE_POINT_ENERGY>  (378) 
0

>  <NONCOV_INTER_ENERGY_QM>  (378) 
0

>  <FF_Energy>  (378) 
11.92

>  <QM_Energy>  (378) 
3.61

>  <source>  (378) 
ETAM_MSM

>  <Index>  (378) 
2107

$$$$
ETAM-pdb2jjz-D-LYS-121:MSM-pdb2jjz-D-MET-112
     RDKit          3D

 20 18  0  0  0  0  0  0  0  0999 V2000
    1.2652    0.9058   -0.0000 C   0  0  0  0  0  0  0  0  0  0  0  0
    1.8819    0.5752    0.7035 H   0  0  0  0  0  0  0  0  0  0  0  0
    0.9791    1.8369    0.1909 H   0  0  0  0  0  0  0  0  0  0  0  0
    1.7901    0.8922   -0.9552 H   0  0  0  0  0  0  0  0  0  0  0  0
    0.0000    0.0000    0.0000 C   0  0  0  0  0  0  0  0  0  0  0  0
    0.0112   -0.5611   -0.8163 H   0  0  0  0  0  0  0  0  0  0  0  0
    0.0106   -0.5618    0.8163 H   0  0  0  0  0  0  0  0  0  0  0  0
   -1.2652    0.8489    0.0000 N   0  0  0  0  0  4  0  0  0  0  0  0
   -1.5731    0.9529   -0.9395 H   0  0  0  0  0  0  0  0  0  0  0  0
   -1.9554    0.3837    0.5433 H   0  0  0  0  0  0  0  0  0  0  0  0
   -1.0490    1.7345    0.3961 H   0  0  0  0  0  0  0  0  0  0  0  0
    2.7881   -1.8623    4.8315 C   0  0  0  0  0  0  0  0  0  0  0  0
    2.7442   -0.8973    5.2235 H   0  0  0  0  0  0  0  0  0  0  0  0
    3.3308   -2.3855    5.5517 H   0  0  0  0  0  0  0  0  0  0  0  0
    1.7759   -2.2661    4.8089 H   0  0  0  0  0  0  0  0  0  0  0  0
    3.6744   -1.8595    3.2574 S   0  0  0  0  0  0  0  0  0  0  0  0
    2.6326   -0.8754    2.2006 C   0  0  0  0  0  0  0  0  0  0  0  0
    2.0124   -0.3173    2.7571 H   0  0  0  0  0  0  0  0  0  0  0  0
    3.1964   -0.2712    1.6319 H   0  0  0  0  0  0  0  0  0  0  0  0
    2.0900   -1.4725    1.6048 H   0  0  0  0  0  0  0  0  0  0  0  0
  1  5  1  0
  5  8  1  0
  1  2  1  0
  1  3  1  0
  1  4  1  0
  5  6  1  0
  5  7  1  0
  8  9  1  0
  8 10  1  0
  8 11  1  0
 12 16  1  0
 16 17  1  0
 12 13  1  0
 12 14  1  0
 12 15  1  0
 17 18  1  0
 17 19  1  0
 17 20  1  0
M  CHG  1   8   1
M  END
>  <PDB_ID>  (379) 
pdb2jjz

>  <RESIDUE_NAME>  (379) 
LYS   MET

>  <FRAG_NAME>  (379) 
ETAM   MSM

>  <FRAG_ATOM_NUM>  (379) 
fragi: 11  fragj: 9

>  <atom.prop.CHAIN_ID>  (379) 
A A A A A A A A A A A Z Z Z Z Z Z Z Z Z

>  <atom.prop.IS_HEAVY_ATOM>  (379) 
1 0 0 0 1 0 0 1 0 0 0 1 0 0 0 1 1 0 0 0

>  <DIFUSE_FUNC_ATOM>  (379) 
n/a

>  <FINAL_SINGLE_POINT_ENERGY>  (379) 
0

>  <NONCOV_INTER_ENERGY_QM>  (379) 
0

>  <FF_Energy>  (379) 
9.89

>  <QM_Energy>  (379) 
2.75

>  <source>  (379) 
ETAM_MSM

>  <Index>  (379) 
2108

$$$$
ETAM-pdb1ixx-D-LYS-53:MSM-pdb1ixx-B-MET-114
     RDKit          3D

 20 18  0  0  0  0  0  0  0  0999 V2000
    1.2460    0.8688   -0.0000 C   0  0  0  0  0  0  0  0  0  0  0  0
    2.0421    0.2854   -0.1377 H   0  0  0  0  0  0  0  0  0  0  0  0
    1.3107    1.3338    0.8793 H   0  0  0  0  0  0  0  0  0  0  0  0
    1.2219    1.6179   -0.7914 H   0  0  0  0  0  0  0  0  0  0  0  0
    0.0000    0.0000    0.0000 C   0  0  0  0  0  0  0  0  0  0  0  0
    0.0127   -0.5867   -0.8161 H   0  0  0  0  0  0  0  0  0  0  0  0
    0.0126   -0.5861    0.8163 H   0  0  0  0  0  0  0  0  0  0  0  0
   -1.2460    0.8094   -0.0000 N   0  0  0  0  0  4  0  0  0  0  0  0
   -1.9130    0.3940   -0.6189 H   0  0  0  0  0  0  0  0  0  0  0  0
   -1.6231    0.8395    0.9256 H   0  0  0  0  0  0  0  0  0  0  0  0
   -1.0397    1.7385   -0.3064 H   0  0  0  0  0  0  0  0  0  0  0  0
   -0.9071    1.3771   -4.0626 C   0  0  0  0  0  0  0  0  0  0  0  0
    0.0302    0.9476   -4.0597 H   0  0  0  0  0  0  0  0  0  0  0  0
   -0.7758    2.2960   -3.6146 H   0  0  0  0  0  0  0  0  0  0  0  0
   -1.2012    1.5430   -5.0989 H   0  0  0  0  0  0  0  0  0  0  0  0
   -2.0721    0.3869   -3.1713 S   0  0  0  0  0  0  0  0  0  0  0  0
   -1.1432   -1.1135   -2.9776 C   0  0  0  0  0  0  0  0  0  0  0  0
   -0.7157   -1.3677   -3.8499 H   0  0  0  0  0  0  0  0  0  0  0  0
   -0.4247   -0.9867   -2.2880 H   0  0  0  0  0  0  0  0  0  0  0  0
   -1.7497   -1.8575   -2.6832 H   0  0  0  0  0  0  0  0  0  0  0  0
  1  5  1  0
  5  8  1  0
  1  2  1  0
  1  3  1  0
  1  4  1  0
  5  6  1  0
  5  7  1  0
  8  9  1  0
  8 10  1  0
  8 11  1  0
 12 16  1  0
 16 17  1  0
 12 13  1  0
 12 14  1  0
 12 15  1  0
 17 18  1  0
 17 19  1  0
 17 20  1  0
M  CHG  1   8   1
M  END
>  <PDB_ID>  (380) 
pdb1ixx

>  <RESIDUE_NAME>  (380) 
LYS   MET

>  <FRAG_NAME>  (380) 
ETAM   MSM

>  <FRAG_ATOM_NUM>  (380) 
fragi: 11  fragj: 9

>  <atom.prop.CHAIN_ID>  (380) 
A A A A A A A A A A A Z Z Z Z Z Z Z Z Z

>  <atom.prop.IS_HEAVY_ATOM>  (380) 
1 0 0 0 1 0 0 1 0 0 0 1 0 0 0 1 1 0 0 0

>  <DIFUSE_FUNC_ATOM>  (380) 
n/a

>  <FINAL_SINGLE_POINT_ENERGY>  (380) 
0

>  <NONCOV_INTER_ENERGY_QM>  (380) 
0

>  <FF_Energy>  (380) 
11.85

>  <QM_Energy>  (380) 
-8.47

>  <source>  (380) 
ETAM_MSM

>  <Index>  (380) 
2113

$$$$
ETAM-pdb2npt-D-LYS-116:MSM-pdb2npt-D-MET-112
     RDKit          3D

 20 18  0  0  0  0  0  0  0  0999 V2000
    1.2274    0.8673   -0.0000 C   0  0  0  0  0  0  0  0  0  0  0  0
    1.2231    1.4432    0.8166 H   0  0  0  0  0  0  0  0  0  0  0  0
    1.2230    1.4426   -0.8166 H   0  0  0  0  0  0  0  0  0  0  0  0
    2.1491    0.2855    0.0007 H   0  0  0  0  0  0  0  0  0  0  0  0
    0.0000    0.0000    0.0000 C   0  0  0  0  0  0  0  0  0  0  0  0
    0.0022   -0.5788   -0.8154 H   0  0  0  0  0  0  0  0  0  0  0  0
    0.0018   -0.5789    0.8167 H   0  0  0  0  0  0  0  0  0  0  0  0
   -1.2274    0.8345   -0.0000 N   0  0  0  0  0  4  0  0  0  0  0  0
   -1.1047    1.6090    0.6209 H   0  0  0  0  0  0  0  0  0  0  0  0
   -1.4004    1.1737   -0.9253 H   0  0  0  0  0  0  0  0  0  0  0  0
   -2.0052    0.2845    0.3041 H   0  0  0  0  0  0  0  0  0  0  0  0
   -1.2683   -1.7556    5.6661 C   0  0  0  0  0  0  0  0  0  0  0  0
   -1.9415   -1.8148    6.4049 H   0  0  0  0  0  0  0  0  0  0  0  0
   -0.5895   -1.0564    5.8942 H   0  0  0  0  0  0  0  0  0  0  0  0
   -0.7785   -2.7201    5.5323 H   0  0  0  0  0  0  0  0  0  0  0  0
   -2.0992   -1.3324    4.0954 S   0  0  0  0  0  0  0  0  0  0  0  0
   -0.6794   -1.3078    2.9942 C   0  0  0  0  0  0  0  0  0  0  0  0
    0.1597   -1.3876    3.5317 H   0  0  0  0  0  0  0  0  0  0  0  0
   -0.7411   -2.0751    2.3549 H   0  0  0  0  0  0  0  0  0  0  0  0
   -0.6688   -0.4484    2.4829 H   0  0  0  0  0  0  0  0  0  0  0  0
  1  5  1  0
  5  8  1  0
  1  2  1  0
  1  3  1  0
  1  4  1  0
  5  6  1  0
  5  7  1  0
  8  9  1  0
  8 10  1  0
  8 11  1  0
 12 16  1  0
 16 17  1  0
 12 13  1  0
 12 14  1  0
 12 15  1  0
 17 18  1  0
 17 19  1  0
 17 20  1  0
M  CHG  1   8   1
M  END
>  <PDB_ID>  (381) 
pdb2npt

>  <RESIDUE_NAME>  (381) 
LYS   MET

>  <FRAG_NAME>  (381) 
ETAM   MSM

>  <FRAG_ATOM_NUM>  (381) 
fragi: 11  fragj: 9

>  <atom.prop.CHAIN_ID>  (381) 
A A A A A A A A A A A Z Z Z Z Z Z Z Z Z

>  <atom.prop.IS_HEAVY_ATOM>  (381) 
1 0 0 0 1 0 0 1 0 0 0 1 0 0 0 1 1 0 0 0

>  <DIFUSE_FUNC_ATOM>  (381) 
n/a

>  <FINAL_SINGLE_POINT_ENERGY>  (381) 
0

>  <NONCOV_INTER_ENERGY_QM>  (381) 
0

>  <FF_Energy>  (381) 
5.21

>  <QM_Energy>  (381) 
-0.01

>  <source>  (381) 
ETAM_MSM

>  <Index>  (381) 
2126

$$$$
ETAM-pdb1iwe-B-LYS-48:MSM-pdb1iwe-B-MET-453
     RDKit          3D

 20 18  0  0  0  0  0  0  0  0999 V2000
    1.2409    0.8901    0.0000 C   0  0  0  0  0  0  0  0  0  0  0  0
    1.4790    1.0960   -0.9364 H   0  0  0  0  0  0  0  0  0  0  0  0
    1.9707    0.4101    0.4620 H   0  0  0  0  0  0  0  0  0  0  0  0
    1.0323    1.8200    0.5289 H   0  0  0  0  0  0  0  0  0  0  0  0
    0.0000    0.0000    0.0000 C   0  0  0  0  0  0  0  0  0  0  0  0
    0.0080   -0.5680   -0.8157 H   0  0  0  0  0  0  0  0  0  0  0  0
    0.0070   -0.5682    0.8164 H   0  0  0  0  0  0  0  0  0  0  0  0
   -1.2409    0.8435    0.0000 N   0  0  0  0  0  4  0  0  0  0  0  0
   -1.1577    1.5450   -0.7042 H   0  0  0  0  0  0  0  0  0  0  0  0
   -2.0291    0.2632   -0.1908 H   0  0  0  0  0  0  0  0  0  0  0  0
   -1.3432    1.2714    0.8952 H   0  0  0  0  0  0  0  0  0  0  0  0
   -2.7136   -0.8690    1.7642 C   0  0  0  0  0  0  0  0  0  0  0  0
   -2.1184   -0.6834    0.9411 H   0  0  0  0  0  0  0  0  0  0  0  0
   -2.9092    0.0659    2.1572 H   0  0  0  0  0  0  0  0  0  0  0  0
   -3.6521   -1.3042    1.4208 H   0  0  0  0  0  0  0  0  0  0  0  0
   -1.8460   -1.8884    2.9572 S   0  0  0  0  0  0  0  0  0  0  0  0
   -1.0267   -0.6056    3.9540 C   0  0  0  0  0  0  0  0  0  0  0  0
   -0.5443   -1.0436    4.7081 H   0  0  0  0  0  0  0  0  0  0  0  0
   -0.3826   -0.1113    3.3758 H   0  0  0  0  0  0  0  0  0  0  0  0
   -1.7188    0.0179    4.3069 H   0  0  0  0  0  0  0  0  0  0  0  0
  1  5  1  0
  5  8  1  0
  1  2  1  0
  1  3  1  0
  1  4  1  0
  5  6  1  0
  5  7  1  0
  8  9  1  0
  8 10  1  0
  8 11  1  0
 12 16  1  0
 16 17  1  0
 12 13  1  0
 12 14  1  0
 12 15  1  0
 17 18  1  0
 17 19  1  0
 17 20  1  0
M  CHG  1   8   1
M  END
>  <PDB_ID>  (382) 
pdb1iwe

>  <RESIDUE_NAME>  (382) 
LYS   MET

>  <FRAG_NAME>  (382) 
ETAM   MSM

>  <FRAG_ATOM_NUM>  (382) 
fragi: 11  fragj: 9

>  <atom.prop.CHAIN_ID>  (382) 
A A A A A A A A A A A Z Z Z Z Z Z Z Z Z

>  <atom.prop.IS_HEAVY_ATOM>  (382) 
1 0 0 0 1 0 0 1 0 0 0 1 0 0 0 1 1 0 0 0

>  <DIFUSE_FUNC_ATOM>  (382) 
n/a

>  <FINAL_SINGLE_POINT_ENERGY>  (382) 
0

>  <NONCOV_INTER_ENERGY_QM>  (382) 
0

>  <FF_Energy>  (382) 
23.5

>  <QM_Energy>  (382) 
6.61

>  <source>  (382) 
ETAM_MSM

>  <Index>  (382) 
2128

$$$$
ETAM-pdb1j08-A-LYS-215:MSM-pdb1j08-A-MET-122
     RDKit          3D

 20 18  0  0  0  0  0  0  0  0999 V2000
    1.2460    0.8803   -0.0000 C   0  0  0  0  0  0  0  0  0  0  0  0
    1.2716    1.3925    0.8533 H   0  0  0  0  0  0  0  0  0  0  0  0
    1.1933    1.5040   -0.7740 H   0  0  0  0  0  0  0  0  0  0  0  0
    2.1608    0.2936   -0.0840 H   0  0  0  0  0  0  0  0  0  0  0  0
    0.0000    0.0000    0.0000 C   0  0  0  0  0  0  0  0  0  0  0  0
    0.0143   -0.5799   -0.8158 H   0  0  0  0  0  0  0  0  0  0  0  0
    0.0137   -0.5802    0.8166 H   0  0  0  0  0  0  0  0  0  0  0  0
   -1.2460    0.8168    0.0000 N   0  0  0  0  0  4  0  0  0  0  0  0
   -2.0382    0.2113    0.0689 H   0  0  0  0  0  0  0  0  0  0  0  0
   -1.2325    1.4412    0.7797 H   0  0  0  0  0  0  0  0  0  0  0  0
   -1.2977    1.3415   -0.8495 H   0  0  0  0  0  0  0  0  0  0  0  0
   -1.1195   -2.7813   -3.8593 C   0  0  0  0  0  0  0  0  0  0  0  0
   -1.4669   -3.7325   -3.9745 H   0  0  0  0  0  0  0  0  0  0  0  0
   -0.5421   -2.5835   -4.6753 H   0  0  0  0  0  0  0  0  0  0  0  0
   -1.9678   -2.0969   -3.8554 H   0  0  0  0  0  0  0  0  0  0  0  0
   -0.1683   -2.6248   -2.3486 S   0  0  0  0  0  0  0  0  0  0  0  0
    1.0220   -1.3992   -2.8462 C   0  0  0  0  0  0  0  0  0  0  0  0
    1.0111   -0.6310   -2.2016 H   0  0  0  0  0  0  0  0  0  0  0  0
    1.9410   -1.8012   -2.8602 H   0  0  0  0  0  0  0  0  0  0  0  0
    0.7999   -1.0598   -3.7641 H   0  0  0  0  0  0  0  0  0  0  0  0
  1  5  1  0
  5  8  1  0
  1  2  1  0
  1  3  1  0
  1  4  1  0
  5  6  1  0
  5  7  1  0
  8  9  1  0
  8 10  1  0
  8 11  1  0
 12 16  1  0
 16 17  1  0
 12 13  1  0
 12 14  1  0
 12 15  1  0
 17 18  1  0
 17 19  1  0
 17 20  1  0
M  CHG  1   8   1
M  END
>  <PDB_ID>  (383) 
pdb1j08

>  <RESIDUE_NAME>  (383) 
LYS   MET

>  <FRAG_NAME>  (383) 
ETAM   MSM

>  <FRAG_ATOM_NUM>  (383) 
fragi: 11  fragj: 9

>  <atom.prop.CHAIN_ID>  (383) 
A A A A A A A A A A A Z Z Z Z Z Z Z Z Z

>  <atom.prop.IS_HEAVY_ATOM>  (383) 
1 0 0 0 1 0 0 1 0 0 0 1 0 0 0 1 1 0 0 0

>  <DIFUSE_FUNC_ATOM>  (383) 
n/a

>  <FINAL_SINGLE_POINT_ENERGY>  (383) 
0

>  <NONCOV_INTER_ENERGY_QM>  (383) 
0

>  <FF_Energy>  (383) 
8.06

>  <QM_Energy>  (383) 
-3.51

>  <source>  (383) 
ETAM_MSM

>  <Index>  (383) 
2130

$$$$
ETAM-pdb2ns2-B-LYS-65:MSM-pdb2ns2-B-MET-153
     RDKit          3D

 20 18  0  0  0  0  0  0  0  0999 V2000
    1.2456    0.8885    0.0000 C   0  0  0  0  0  0  0  0  0  0  0  0
    1.1224    1.6002   -0.6853 H   0  0  0  0  0  0  0  0  0  0  0  0
    2.0330    0.3236   -0.2289 H   0  0  0  0  0  0  0  0  0  0  0  0
    1.4144    1.3563    0.9699 H   0  0  0  0  0  0  0  0  0  0  0  0
    0.0000    0.0000    0.0000 C   0  0  0  0  0  0  0  0  0  0  0  0
    0.0155   -0.5756   -0.8164 H   0  0  0  0  0  0  0  0  0  0  0  0
    0.0153   -0.5754    0.8159 H   0  0  0  0  0  0  0  0  0  0  0  0
   -1.2456    0.8230   -0.0000 N   0  0  0  0  0  4  0  0  0  0  0  0
   -1.5765    0.9198    0.9375 H   0  0  0  0  0  0  0  0  0  0  0  0
   -1.0450    1.7248   -0.3799 H   0  0  0  0  0  0  0  0  0  0  0  0
   -1.9393    0.3693   -0.5569 H   0  0  0  0  0  0  0  0  0  0  0  0
    3.8976   -2.5553   -0.1171 C   0  0  0  0  0  0  0  0  0  0  0  0
    3.0195   -2.7275    0.3763 H   0  0  0  0  0  0  0  0  0  0  0  0
    4.4484   -3.4106   -0.0180 H   0  0  0  0  0  0  0  0  0  0  0  0
    3.6838   -2.3909   -1.1732 H   0  0  0  0  0  0  0  0  0  0  0  0
    4.7700   -1.1534    0.6155 S   0  0  0  0  0  0  0  0  0  0  0  0
    4.2025    0.1146   -0.3036 C   0  0  0  0  0  0  0  0  0  0  0  0
    3.6891    0.8082    0.2472 H   0  0  0  0  0  0  0  0  0  0  0  0
    4.9505    0.6308   -0.7758 H   0  0  0  0  0  0  0  0  0  0  0  0
    3.5605   -0.1851   -1.0423 H   0  0  0  0  0  0  0  0  0  0  0  0
  1  5  1  0
  5  8  1  0
  1  2  1  0
  1  3  1  0
  1  4  1  0
  5  6  1  0
  5  7  1  0
  8  9  1  0
  8 10  1  0
  8 11  1  0
 12 16  1  0
 16 17  1  0
 12 13  1  0
 12 14  1  0
 12 15  1  0
 17 18  1  0
 17 19  1  0
 17 20  1  0
M  CHG  1   8   1
M  END
>  <PDB_ID>  (384) 
pdb2ns2

>  <RESIDUE_NAME>  (384) 
LYS   MET

>  <FRAG_NAME>  (384) 
ETAM   MSM

>  <FRAG_ATOM_NUM>  (384) 
fragi: 11  fragj: 9

>  <atom.prop.CHAIN_ID>  (384) 
A A A A A A A A A A A Z Z Z Z Z Z Z Z Z

>  <atom.prop.IS_HEAVY_ATOM>  (384) 
1 0 0 0 1 0 0 1 0 0 0 1 0 0 0 1 1 0 0 0

>  <DIFUSE_FUNC_ATOM>  (384) 
n/a

>  <FINAL_SINGLE_POINT_ENERGY>  (384) 
0

>  <NONCOV_INTER_ENERGY_QM>  (384) 
0

>  <FF_Energy>  (384) 
14.67

>  <QM_Energy>  (384) 
4.94

>  <source>  (384) 
ETAM_MSM

>  <Index>  (384) 
2140

$$$$
ETAM-pdb1j36-A-LYS-298:MSM-pdb1j36-A-MET-302
     RDKit          3D

 20 18  0  0  0  0  0  0  0  0999 V2000
    1.2520    0.8792    0.0000 C   0  0  0  0  0  0  0  0  0  0  0  0
    1.1431    1.5763   -0.7041 H   0  0  0  0  0  0  0  0  0  0  0  0
    2.0376    0.3025   -0.2104 H   0  0  0  0  0  0  0  0  0  0  0  0
    1.4122    1.3658    0.9620 H   0  0  0  0  0  0  0  0  0  0  0  0
    0.0000    0.0000    0.0000 C   0  0  0  0  0  0  0  0  0  0  0  0
    0.0163   -0.5832   -0.8160 H   0  0  0  0  0  0  0  0  0  0  0  0
    0.0157   -0.5824    0.8162 H   0  0  0  0  0  0  0  0  0  0  0  0
   -1.2520    0.8099    0.0000 N   0  0  0  0  0  4  0  0  0  0  0  0
   -1.9793    0.2937   -0.4500 H   0  0  0  0  0  0  0  0  0  0  0  0
   -1.5159    1.0099    0.9431 H   0  0  0  0  0  0  0  0  0  0  0  0
   -1.0924    1.6644   -0.4923 H   0  0  0  0  0  0  0  0  0  0  0  0
   -3.0381    3.1337    1.2276 C   0  0  0  0  0  0  0  0  0  0  0  0
   -3.8435    2.5549    0.9682 H   0  0  0  0  0  0  0  0  0  0  0  0
   -2.3225    2.9416    0.5179 H   0  0  0  0  0  0  0  0  0  0  0  0
   -3.3273    4.1820    1.1538 H   0  0  0  0  0  0  0  0  0  0  0  0
   -2.4336    2.6764    2.8790 S   0  0  0  0  0  0  0  0  0  0  0  0
   -3.9716    2.7201    3.8834 C   0  0  0  0  0  0  0  0  0  0  0  0
   -3.8070    2.2255    4.7297 H   0  0  0  0  0  0  0  0  0  0  0  0
   -4.1950    3.6691    4.0721 H   0  0  0  0  0  0  0  0  0  0  0  0
   -4.6985    2.2870    3.3616 H   0  0  0  0  0  0  0  0  0  0  0  0
  1  5  1  0
  5  8  1  0
  1  2  1  0
  1  3  1  0
  1  4  1  0
  5  6  1  0
  5  7  1  0
  8  9  1  0
  8 10  1  0
  8 11  1  0
 12 16  1  0
 16 17  1  0
 12 13  1  0
 12 14  1  0
 12 15  1  0
 17 18  1  0
 17 19  1  0
 17 20  1  0
M  CHG  1   8   1
M  END
>  <PDB_ID>  (385) 
pdb1j36

>  <RESIDUE_NAME>  (385) 
LYS   MET

>  <FRAG_NAME>  (385) 
ETAM   MSM

>  <FRAG_ATOM_NUM>  (385) 
fragi: 11  fragj: 9

>  <atom.prop.CHAIN_ID>  (385) 
A A A A A A A A A A A Z Z Z Z Z Z Z Z Z

>  <atom.prop.IS_HEAVY_ATOM>  (385) 
1 0 0 0 1 0 0 1 0 0 0 1 0 0 0 1 1 0 0 0

>  <DIFUSE_FUNC_ATOM>  (385) 
n/a

>  <FINAL_SINGLE_POINT_ENERGY>  (385) 
0

>  <NONCOV_INTER_ENERGY_QM>  (385) 
0

>  <FF_Energy>  (385) 
-1.09

>  <QM_Energy>  (385) 
-7.86

>  <source>  (385) 
ETAM_MSM

>  <Index>  (385) 
2146

$$$$
ETAM-pdb2nw8-C-LYS-251:MSM-pdb2nw8-C-MET-114
     RDKit          3D

 20 18  0  0  0  0  0  0  0  0999 V2000
    1.2406    0.8735    0.0000 C   0  0  0  0  0  0  0  0  0  0  0  0
    1.2542    1.4090    0.8409 H   0  0  0  0  0  0  0  0  0  0  0  0
    1.2032    1.4813   -0.7894 H   0  0  0  0  0  0  0  0  0  0  0  0
    2.1553    0.2833   -0.0543 H   0  0  0  0  0  0  0  0  0  0  0  0
    0.0000    0.0000    0.0000 C   0  0  0  0  0  0  0  0  0  0  0  0
    0.0056   -0.5771   -0.8164 H   0  0  0  0  0  0  0  0  0  0  0  0
    0.0053   -0.5775    0.8166 H   0  0  0  0  0  0  0  0  0  0  0  0
   -1.2406    0.8319   -0.0000 N   0  0  0  0  0  4  0  0  0  0  0  0
   -1.3530    1.2548    0.8979 H   0  0  0  0  0  0  0  0  0  0  0  0
   -1.1614    1.5407   -0.6988 H   0  0  0  0  0  0  0  0  0  0  0  0
   -2.0269    0.2493   -0.1994 H   0  0  0  0  0  0  0  0  0  0  0  0
   -5.1351    1.8361   -1.4537 C   0  0  0  0  0  0  0  0  0  0  0  0
   -5.1900    0.8636   -1.7631 H   0  0  0  0  0  0  0  0  0  0  0  0
   -4.6540    2.3422   -2.2005 H   0  0  0  0  0  0  0  0  0  0  0  0
   -6.1469    2.2298   -1.3574 H   0  0  0  0  0  0  0  0  0  0  0  0
   -4.2028    1.9579    0.0975 S   0  0  0  0  0  0  0  0  0  0  0  0
   -4.2426    0.2593    0.6404 C   0  0  0  0  0  0  0  0  0  0  0  0
   -4.5899   -0.3249   -0.0965 H   0  0  0  0  0  0  0  0  0  0  0  0
   -3.3181   -0.0392    0.8886 H   0  0  0  0  0  0  0  0  0  0  0  0
   -4.8420    0.1723    1.4389 H   0  0  0  0  0  0  0  0  0  0  0  0
  1  5  1  0
  5  8  1  0
  1  2  1  0
  1  3  1  0
  1  4  1  0
  5  6  1  0
  5  7  1  0
  8  9  1  0
  8 10  1  0
  8 11  1  0
 12 16  1  0
 16 17  1  0
 12 13  1  0
 12 14  1  0
 12 15  1  0
 17 18  1  0
 17 19  1  0
 17 20  1  0
M  CHG  1   8   1
M  END
>  <PDB_ID>  (386) 
pdb2nw8

>  <RESIDUE_NAME>  (386) 
LYS   MET

>  <FRAG_NAME>  (386) 
ETAM   MSM

>  <FRAG_ATOM_NUM>  (386) 
fragi: 11  fragj: 9

>  <atom.prop.CHAIN_ID>  (386) 
A A A A A A A A A A A Z Z Z Z Z Z Z Z Z

>  <atom.prop.IS_HEAVY_ATOM>  (386) 
1 0 0 0 1 0 0 1 0 0 0 1 0 0 0 1 1 0 0 0

>  <DIFUSE_FUNC_ATOM>  (386) 
n/a

>  <FINAL_SINGLE_POINT_ENERGY>  (386) 
0

>  <NONCOV_INTER_ENERGY_QM>  (386) 
0

>  <FF_Energy>  (386) 
-0.43

>  <QM_Energy>  (386) 
-7.31

>  <source>  (386) 
ETAM_MSM

>  <Index>  (386) 
2156

$$$$
ETAM-pdb1j08-E-LYS-215:MSM-pdb1j08-E-MET-122
     RDKit          3D

 20 18  0  0  0  0  0  0  0  0999 V2000
    1.2640    0.8628   -0.0000 C   0  0  0  0  0  0  0  0  0  0  0  0
    1.2431    1.4463    0.8000 H   0  0  0  0  0  0  0  0  0  0  0  0
    1.2751    1.3977   -0.8323 H   0  0  0  0  0  0  0  0  0  0  0  0
    2.1530    0.2332    0.0367 H   0  0  0  0  0  0  0  0  0  0  0  0
    0.0000    0.0000    0.0000 C   0  0  0  0  0  0  0  0  0  0  0  0
    0.0152   -0.5925   -0.8158 H   0  0  0  0  0  0  0  0  0  0  0  0
    0.0146   -0.5926    0.8167 H   0  0  0  0  0  0  0  0  0  0  0  0
   -1.2640    0.7968    0.0000 N   0  0  0  0  0  4  0  0  0  0  0  0
   -1.9719    0.2899    0.4890 H   0  0  0  0  0  0  0  0  0  0  0  0
   -1.1010    1.6720    0.4532 H   0  0  0  0  0  0  0  0  0  0  0  0
   -1.5529    0.9543   -0.9430 H   0  0  0  0  0  0  0  0  0  0  0  0
   -0.9828   -1.4956   -4.5694 C   0  0  0  0  0  0  0  0  0  0  0  0
   -1.5889   -2.2971   -4.7379 H   0  0  0  0  0  0  0  0  0  0  0  0
   -0.2225   -1.5599   -5.2448 H   0  0  0  0  0  0  0  0  0  0  0  0
   -1.5470   -0.5827   -4.7601 H   0  0  0  0  0  0  0  0  0  0  0  0
   -0.3488   -1.5148   -2.8895 S   0  0  0  0  0  0  0  0  0  0  0  0
    0.9902   -0.3613   -3.0245 C   0  0  0  0  0  0  0  0  0  0  0  0
    0.6616    0.5043   -3.4121 H   0  0  0  0  0  0  0  0  0  0  0  0
    1.3844   -0.1820   -2.1182 H   0  0  0  0  0  0  0  0  0  0  0  0
    1.7070   -0.7332   -3.6212 H   0  0  0  0  0  0  0  0  0  0  0  0
  1  5  1  0
  5  8  1  0
  1  2  1  0
  1  3  1  0
  1  4  1  0
  5  6  1  0
  5  7  1  0
  8  9  1  0
  8 10  1  0
  8 11  1  0
 12 16  1  0
 16 17  1  0
 12 13  1  0
 12 14  1  0
 12 15  1  0
 17 18  1  0
 17 19  1  0
 17 20  1  0
M  CHG  1   8   1
M  END
>  <PDB_ID>  (387) 
pdb1j08

>  <RESIDUE_NAME>  (387) 
LYS   MET

>  <FRAG_NAME>  (387) 
ETAM   MSM

>  <FRAG_ATOM_NUM>  (387) 
fragi: 11  fragj: 9

>  <atom.prop.CHAIN_ID>  (387) 
A A A A A A A A A A A Z Z Z Z Z Z Z Z Z

>  <atom.prop.IS_HEAVY_ATOM>  (387) 
1 0 0 0 1 0 0 1 0 0 0 1 0 0 0 1 1 0 0 0

>  <DIFUSE_FUNC_ATOM>  (387) 
n/a

>  <FINAL_SINGLE_POINT_ENERGY>  (387) 
0

>  <NONCOV_INTER_ENERGY_QM>  (387) 
0

>  <FF_Energy>  (387) 
12.77

>  <QM_Energy>  (387) 
-4.41

>  <source>  (387) 
ETAM_MSM

>  <Index>  (387) 
2163

$$$$
ETAM-pdb1j3u-A-LYS-183:MSM-pdb1j3u-A-MET-298
     RDKit          3D

 20 18  0  0  0  0  0  0  0  0999 V2000
    1.2398    0.8658   -0.0000 C   0  0  0  0  0  0  0  0  0  0  0  0
    1.2906    1.3538    0.8648 H   0  0  0  0  0  0  0  0  0  0  0  0
    1.1836    1.5060   -0.7575 H   0  0  0  0  0  0  0  0  0  0  0  0
    2.1392    0.2610   -0.1152 H   0  0  0  0  0  0  0  0  0  0  0  0
    0.0000    0.0000    0.0000 C   0  0  0  0  0  0  0  0  0  0  0  0
    0.0092   -0.5852   -0.8166 H   0  0  0  0  0  0  0  0  0  0  0  0
    0.0084   -0.5857    0.8162 H   0  0  0  0  0  0  0  0  0  0  0  0
   -1.2398    0.8159    0.0000 N   0  0  0  0  0  4  0  0  0  0  0  0
   -1.0009    1.7859    0.0481 H   0  0  0  0  0  0  0  0  0  0  0  0
   -1.7547    0.6407   -0.8395 H   0  0  0  0  0  0  0  0  0  0  0  0
   -1.8004    0.5717    0.7920 H   0  0  0  0  0  0  0  0  0  0  0  0
   -4.2088    3.2172    2.7132 C   0  0  0  0  0  0  0  0  0  0  0  0
   -4.3729    2.2090    2.5742 H   0  0  0  0  0  0  0  0  0  0  0  0
   -5.0825    3.6695    2.4072 H   0  0  0  0  0  0  0  0  0  0  0  0
   -4.0931    3.3950    3.7824 H   0  0  0  0  0  0  0  0  0  0  0  0
   -2.8126    3.7823    1.7221 S   0  0  0  0  0  0  0  0  0  0  0  0
   -2.8878    5.5451    1.9364 C   0  0  0  0  0  0  0  0  0  0  0  0
   -3.7949    5.8841    1.6741 H   0  0  0  0  0  0  0  0  0  0  0  0
   -2.7167    5.7814    2.8969 H   0  0  0  0  0  0  0  0  0  0  0  0
   -2.1947    5.9901    1.3629 H   0  0  0  0  0  0  0  0  0  0  0  0
  1  5  1  0
  5  8  1  0
  1  2  1  0
  1  3  1  0
  1  4  1  0
  5  6  1  0
  5  7  1  0
  8  9  1  0
  8 10  1  0
  8 11  1  0
 12 16  1  0
 16 17  1  0
 12 13  1  0
 12 14  1  0
 12 15  1  0
 17 18  1  0
 17 19  1  0
 17 20  1  0
M  CHG  1   8   1
M  END
>  <PDB_ID>  (388) 
pdb1j3u

>  <RESIDUE_NAME>  (388) 
LYS   MET

>  <FRAG_NAME>  (388) 
ETAM   MSM

>  <FRAG_ATOM_NUM>  (388) 
fragi: 11  fragj: 9

>  <atom.prop.CHAIN_ID>  (388) 
A A A A A A A A A A A Z Z Z Z Z Z Z Z Z

>  <atom.prop.IS_HEAVY_ATOM>  (388) 
1 0 0 0 1 0 0 1 0 0 0 1 0 0 0 1 1 0 0 0

>  <DIFUSE_FUNC_ATOM>  (388) 
n/a

>  <FINAL_SINGLE_POINT_ENERGY>  (388) 
0

>  <NONCOV_INTER_ENERGY_QM>  (388) 
0

>  <FF_Energy>  (388) 
-4.68

>  <QM_Energy>  (388) 
-10.25

>  <source>  (388) 
ETAM_MSM

>  <Index>  (388) 
2164

$$$$
ETAM-pdb2nyd-A-LYS-337:MSM-pdb2nyd-A-MET-341
     RDKit          3D

 20 18  0  0  0  0  0  0  0  0999 V2000
    1.2366    0.9172    0.0000 C   0  0  0  0  0  0  0  0  0  0  0  0
    1.1450    1.5602   -0.7524 H   0  0  0  0  0  0  0  0  0  0  0  0
    2.0423    0.3497   -0.1223 H   0  0  0  0  0  0  0  0  0  0  0  0
    1.3280    1.4721    0.9338 H   0  0  0  0  0  0  0  0  0  0  0  0
    0.0000    0.0000    0.0000 C   0  0  0  0  0  0  0  0  0  0  0  0
    0.0253   -0.5640   -0.8161 H   0  0  0  0  0  0  0  0  0  0  0  0
    0.0249   -0.5642    0.8160 H   0  0  0  0  0  0  0  0  0  0  0  0
   -1.2366    0.8277   -0.0000 N   0  0  0  0  0  4  0  0  0  0  0  0
   -1.1990    1.4800   -0.7562 H   0  0  0  0  0  0  0  0  0  0  0  0
   -2.0335    0.2334   -0.1095 H   0  0  0  0  0  0  0  0  0  0  0  0
   -1.3050    1.3227    0.8658 H   0  0  0  0  0  0  0  0  0  0  0  0
   -1.1755   -0.0764    4.7179 C   0  0  0  0  0  0  0  0  0  0  0  0
   -1.9483    0.3812    5.1872 H   0  0  0  0  0  0  0  0  0  0  0  0
   -0.4235    0.5978    4.6450 H   0  0  0  0  0  0  0  0  0  0  0  0
   -0.8447   -0.9309    5.3082 H   0  0  0  0  0  0  0  0  0  0  0  0
   -1.6722   -0.6464    3.0919 S   0  0  0  0  0  0  0  0  0  0  0  0
   -2.8711   -1.9161    3.5473 C   0  0  0  0  0  0  0  0  0  0  0  0
   -2.3858   -2.7521    3.7983 H   0  0  0  0  0  0  0  0  0  0  0  0
   -3.4117   -1.5946    4.3227 H   0  0  0  0  0  0  0  0  0  0  0  0
   -3.4715   -2.0959    2.7701 H   0  0  0  0  0  0  0  0  0  0  0  0
  1  5  1  0
  5  8  1  0
  1  2  1  0
  1  3  1  0
  1  4  1  0
  5  6  1  0
  5  7  1  0
  8  9  1  0
  8 10  1  0
  8 11  1  0
 12 16  1  0
 16 17  1  0
 12 13  1  0
 12 14  1  0
 12 15  1  0
 17 18  1  0
 17 19  1  0
 17 20  1  0
M  CHG  1   8   1
M  END
>  <PDB_ID>  (389) 
pdb2nyd

>  <RESIDUE_NAME>  (389) 
LYS   MET

>  <FRAG_NAME>  (389) 
ETAM   MSM

>  <FRAG_ATOM_NUM>  (389) 
fragi: 11  fragj: 9

>  <atom.prop.CHAIN_ID>  (389) 
A A A A A A A A A A A Z Z Z Z Z Z Z Z Z

>  <atom.prop.IS_HEAVY_ATOM>  (389) 
1 0 0 0 1 0 0 1 0 0 0 1 0 0 0 1 1 0 0 0

>  <DIFUSE_FUNC_ATOM>  (389) 
n/a

>  <FINAL_SINGLE_POINT_ENERGY>  (389) 
0

>  <NONCOV_INTER_ENERGY_QM>  (389) 
0

>  <FF_Energy>  (389) 
-5.25

>  <QM_Energy>  (389) 
-13.18

>  <source>  (389) 
ETAM_MSM

>  <Index>  (389) 
2169

$$$$
ETAM-pdb1j1n-B-LYS-457:MSM-pdb1j1n-B-MET-448
     RDKit          3D

 20 18  0  0  0  0  0  0  0  0999 V2000
    1.2584    0.8654    0.0000 C   0  0  0  0  0  0  0  0  0  0  0  0
    1.2781    1.3960    0.8370 H   0  0  0  0  0  0  0  0  0  0  0  0
    1.2352    1.4559   -0.7951 H   0  0  0  0  0  0  0  0  0  0  0  0
    2.1555    0.2481   -0.0452 H   0  0  0  0  0  0  0  0  0  0  0  0
    0.0000    0.0000    0.0000 C   0  0  0  0  0  0  0  0  0  0  0  0
    0.0136   -0.5896   -0.8162 H   0  0  0  0  0  0  0  0  0  0  0  0
    0.0127   -0.5896    0.8162 H   0  0  0  0  0  0  0  0  0  0  0  0
   -1.2584    0.8032    0.0000 N   0  0  0  0  0  4  0  0  0  0  0  0
   -1.9896    0.2699   -0.4223 H   0  0  0  0  0  0  0  0  0  0  0  0
   -1.5057    1.0277    0.9418 H   0  0  0  0  0  0  0  0  0  0  0  0
   -1.1123    1.6441   -0.5197 H   0  0  0  0  0  0  0  0  0  0  0  0
   -1.0877    5.8130    1.8664 C   0  0  0  0  0  0  0  0  0  0  0  0
   -1.9202    5.6972    2.4617 H   0  0  0  0  0  0  0  0  0  0  0  0
   -1.2571    6.6840    1.3439 H   0  0  0  0  0  0  0  0  0  0  0  0
   -0.2221    5.9620    2.5119 H   0  0  0  0  0  0  0  0  0  0  0  0
   -0.9217    4.4126    0.7287 S   0  0  0  0  0  0  0  0  0  0  0  0
    0.8323    4.5378    0.2975 C   0  0  0  0  0  0  0  0  0  0  0  0
    1.3801    4.1834    1.0531 H   0  0  0  0  0  0  0  0  0  0  0  0
    1.0044    4.0025   -0.5268 H   0  0  0  0  0  0  0  0  0  0  0  0
    1.0601    5.4950    0.1329 H   0  0  0  0  0  0  0  0  0  0  0  0
  1  5  1  0
  5  8  1  0
  1  2  1  0
  1  3  1  0
  1  4  1  0
  5  6  1  0
  5  7  1  0
  8  9  1  0
  8 10  1  0
  8 11  1  0
 12 16  1  0
 16 17  1  0
 12 13  1  0
 12 14  1  0
 12 15  1  0
 17 18  1  0
 17 19  1  0
 17 20  1  0
M  CHG  1   8   1
M  END
>  <PDB_ID>  (390) 
pdb1j1n

>  <RESIDUE_NAME>  (390) 
LYS   MET

>  <FRAG_NAME>  (390) 
ETAM   MSM

>  <FRAG_ATOM_NUM>  (390) 
fragi: 11  fragj: 9

>  <atom.prop.CHAIN_ID>  (390) 
A A A A A A A A A A A Z Z Z Z Z Z Z Z Z

>  <atom.prop.IS_HEAVY_ATOM>  (390) 
1 0 0 0 1 0 0 1 0 0 0 1 0 0 0 1 1 0 0 0

>  <DIFUSE_FUNC_ATOM>  (390) 
n/a

>  <FINAL_SINGLE_POINT_ENERGY>  (390) 
0

>  <NONCOV_INTER_ENERGY_QM>  (390) 
0

>  <FF_Energy>  (390) 
-5.14

>  <QM_Energy>  (390) 
-10.37

>  <source>  (390) 
ETAM_MSM

>  <Index>  (390) 
2177

$$$$
ETAM-pdb2nzu-G-LYS-307:MSM-pdb2nzu-L-MET-48
     RDKit          3D

 20 18  0  0  0  0  0  0  0  0999 V2000
    1.2372    0.8876    0.0000 C   0  0  0  0  0  0  0  0  0  0  0  0
    1.3585    1.2574    0.9088 H   0  0  0  0  0  0  0  0  0  0  0  0
    1.1089    1.6058   -0.6677 H   0  0  0  0  0  0  0  0  0  0  0  0
    2.1149    0.2994   -0.2682 H   0  0  0  0  0  0  0  0  0  0  0  0
    0.0000    0.0000    0.0000 C   0  0  0  0  0  0  0  0  0  0  0  0
    0.0196   -0.5798   -0.8164 H   0  0  0  0  0  0  0  0  0  0  0  0
    0.0197   -0.5796    0.8164 H   0  0  0  0  0  0  0  0  0  0  0  0
   -1.2372    0.8115    0.0000 N   0  0  0  0  0  4  0  0  0  0  0  0
   -1.0061    1.7767   -0.1339 H   0  0  0  0  0  0  0  0  0  0  0  0
   -1.8380    0.5079   -0.7412 H   0  0  0  0  0  0  0  0  0  0  0  0
   -1.7101    0.7027    0.8751 H   0  0  0  0  0  0  0  0  0  0  0  0
   -1.5014   -1.0381    3.9276 C   0  0  0  0  0  0  0  0  0  0  0  0
   -1.2672   -1.3315    4.8774 H   0  0  0  0  0  0  0  0  0  0  0  0
   -1.2347   -1.8122    3.3172 H   0  0  0  0  0  0  0  0  0  0  0  0
   -2.5775   -0.8793    3.8573 H   0  0  0  0  0  0  0  0  0  0  0  0
   -0.6268    0.4458    3.4887 S   0  0  0  0  0  0  0  0  0  0  0  0
   -0.9463    1.4728    4.9353 C   0  0  0  0  0  0  0  0  0  0  0  0
   -1.3920    2.3197    4.6466 H   0  0  0  0  0  0  0  0  0  0  0  0
   -1.5416    0.9775    5.5671 H   0  0  0  0  0  0  0  0  0  0  0  0
   -0.0812    1.6859    5.3862 H   0  0  0  0  0  0  0  0  0  0  0  0
  1  5  1  0
  5  8  1  0
  1  2  1  0
  1  3  1  0
  1  4  1  0
  5  6  1  0
  5  7  1  0
  8  9  1  0
  8 10  1  0
  8 11  1  0
 12 16  1  0
 16 17  1  0
 12 13  1  0
 12 14  1  0
 12 15  1  0
 17 18  1  0
 17 19  1  0
 17 20  1  0
M  CHG  1   8   1
M  END
>  <PDB_ID>  (391) 
pdb2nzu

>  <RESIDUE_NAME>  (391) 
LYS   MET

>  <FRAG_NAME>  (391) 
ETAM   MSM

>  <FRAG_ATOM_NUM>  (391) 
fragi: 11  fragj: 9

>  <atom.prop.CHAIN_ID>  (391) 
A A A A A A A A A A A Z Z Z Z Z Z Z Z Z

>  <atom.prop.IS_HEAVY_ATOM>  (391) 
1 0 0 0 1 0 0 1 0 0 0 1 0 0 0 1 1 0 0 0

>  <DIFUSE_FUNC_ATOM>  (391) 
n/a

>  <FINAL_SINGLE_POINT_ENERGY>  (391) 
0

>  <NONCOV_INTER_ENERGY_QM>  (391) 
0

>  <FF_Energy>  (391) 
-5.37

>  <QM_Energy>  (391) 
-14.3

>  <source>  (391) 
ETAM_MSM

>  <Index>  (391) 
2178

$$$$
ETAM-pdb1j85-A-LYS-119:MSM-pdb1j85-A-MET-116
     RDKit          3D

 20 18  0  0  0  0  0  0  0  0999 V2000
    1.2077    0.8815    0.0000 C   0  0  0  0  0  0  0  0  0  0  0  0
    1.2058    1.4451    0.8209 H   0  0  0  0  0  0  0  0  0  0  0  0
    1.1956    1.4578   -0.8118 H   0  0  0  0  0  0  0  0  0  0  0  0
    2.1261    0.2946   -0.0095 H   0  0  0  0  0  0  0  0  0  0  0  0
    0.0000    0.0000    0.0000 C   0  0  0  0  0  0  0  0  0  0  0  0
   -0.0152   -0.5541   -0.8158 H   0  0  0  0  0  0  0  0  0  0  0  0
   -0.0162   -0.5544    0.8164 H   0  0  0  0  0  0  0  0  0  0  0  0
   -1.2077    0.8933   -0.0000 N   0  0  0  0  0  4  0  0  0  0  0  0
   -1.4169    1.1559   -0.9387 H   0  0  0  0  0  0  0  0  0  0  0  0
   -1.9779    0.3981    0.3946 H   0  0  0  0  0  0  0  0  0  0  0  0
   -1.0108    1.7059    0.5447 H   0  0  0  0  0  0  0  0  0  0  0  0
   -3.1423   -3.4572    1.2740 C   0  0  0  0  0  0  0  0  0  0  0  0
   -3.4167   -3.3417    0.3013 H   0  0  0  0  0  0  0  0  0  0  0  0
   -3.9190   -3.9148    1.7454 H   0  0  0  0  0  0  0  0  0  0  0  0
   -2.2658   -4.1035    1.3210 H   0  0  0  0  0  0  0  0  0  0  0  0
   -2.8062   -1.8393    2.0331 S   0  0  0  0  0  0  0  0  0  0  0  0
   -2.7396   -2.3724    3.7216 C   0  0  0  0  0  0  0  0  0  0  0  0
   -1.8484   -2.7938    3.9156 H   0  0  0  0  0  0  0  0  0  0  0  0
   -2.8688   -1.5889    4.3365 H   0  0  0  0  0  0  0  0  0  0  0  0
   -3.4627   -3.0468    3.8994 H   0  0  0  0  0  0  0  0  0  0  0  0
  1  5  1  0
  5  8  1  0
  1  2  1  0
  1  3  1  0
  1  4  1  0
  5  6  1  0
  5  7  1  0
  8  9  1  0
  8 10  1  0
  8 11  1  0
 12 16  1  0
 16 17  1  0
 12 13  1  0
 12 14  1  0
 12 15  1  0
 17 18  1  0
 17 19  1  0
 17 20  1  0
M  CHG  1   8   1
M  END
>  <PDB_ID>  (392) 
pdb1j85

>  <RESIDUE_NAME>  (392) 
LYS   MET

>  <FRAG_NAME>  (392) 
ETAM   MSM

>  <FRAG_ATOM_NUM>  (392) 
fragi: 11  fragj: 9

>  <atom.prop.CHAIN_ID>  (392) 
A A A A A A A A A A A Z Z Z Z Z Z Z Z Z

>  <atom.prop.IS_HEAVY_ATOM>  (392) 
1 0 0 0 1 0 0 1 0 0 0 1 0 0 0 1 1 0 0 0

>  <DIFUSE_FUNC_ATOM>  (392) 
n/a

>  <FINAL_SINGLE_POINT_ENERGY>  (392) 
0

>  <NONCOV_INTER_ENERGY_QM>  (392) 
0

>  <FF_Energy>  (392) 
-5.33

>  <QM_Energy>  (392) 
-12.15

>  <source>  (392) 
ETAM_MSM

>  <Index>  (392) 
2183

$$$$
ETAM-pdb1j8h-E-VAL-2:MSM-pdb1j8h-E-MET-27
     RDKit          3D

 20 18  0  0  0  0  0  0  0  0999 V2000
    1.2630    0.9352   -0.0000 C   0  0  0  0  0  0  0  0  0  0  0  0
    1.2774    1.4035    0.8739 H   0  0  0  0  0  0  0  0  0  0  0  0
    2.1766    0.3446   -0.0674 H   0  0  0  0  0  0  0  0  0  0  0  0
    1.2146    1.6338   -0.8353 H   0  0  0  0  0  0  0  0  0  0  0  0
    0.0000    0.0000    0.0000 C   0  0  0  0  0  0  0  0  0  0  0  0
   -0.0060   -0.5659   -0.8257 H   0  0  0  0  0  0  0  0  0  0  0  0
    0.0419   -0.6620    0.8650 H   0  0  0  0  0  0  0  0  0  0  0  0
   -1.2630    0.8068    0.0000 N   0  0  0  0  0  4  0  0  0  0  0  0
   -1.0481    1.7435    0.2591 H   0  0  0  0  0  0  0  0  0  0  0  0
   -1.6585    0.7882   -0.9133 H   0  0  0  0  0  0  0  0  0  0  0  0
   -1.8996    0.4100    0.6546 H   0  0  0  0  0  0  0  0  0  0  0  0
   -0.0185   -2.6783   -3.0218 C   0  0  0  0  0  0  0  0  0  0  0  0
   -0.5546   -1.8013   -3.1027 H   0  0  0  0  0  0  0  0  0  0  0  0
   -0.7251   -3.3989   -2.8107 H   0  0  0  0  0  0  0  0  0  0  0  0
    0.4212   -2.9022   -3.9937 H   0  0  0  0  0  0  0  0  0  0  0  0
    1.1902   -2.5674   -1.7059 S   0  0  0  0  0  0  0  0  0  0  0  0
    1.5846   -4.2945   -1.5082 C   0  0  0  0  0  0  0  0  0  0  0  0
    0.7419   -4.8378   -1.5071 H   0  0  0  0  0  0  0  0  0  0  0  0
    2.1709   -4.5984   -2.2627 H   0  0  0  0  0  0  0  0  0  0  0  0
    2.0670   -4.4366   -0.6408 H   0  0  0  0  0  0  0  0  0  0  0  0
  1  5  1  0
  5  8  1  0
  1  2  1  0
  1  3  1  0
  1  4  1  0
  5  6  1  0
  5  7  1  0
  8  9  1  0
  8 10  1  0
  8 11  1  0
 12 16  1  0
 16 17  1  0
 12 13  1  0
 12 14  1  0
 12 15  1  0
 17 18  1  0
 17 19  1  0
 17 20  1  0
M  CHG  1   8   1
M  END
>  <PDB_ID>  (393) 
pdb1j8h

>  <RESIDUE_NAME>  (393) 
VAL   MET

>  <FRAG_NAME>  (393) 
ETAM   MSM

>  <FRAG_ATOM_NUM>  (393) 
fragi: 11  fragj: 9

>  <atom.prop.CHAIN_ID>  (393) 
A A A A A A A A A A A Z Z Z Z Z Z Z Z Z

>  <atom.prop.IS_HEAVY_ATOM>  (393) 
1 0 0 0 1 0 0 1 0 0 0 1 0 0 0 1 1 0 0 0

>  <DIFUSE_FUNC_ATOM>  (393) 
n/a

>  <FINAL_SINGLE_POINT_ENERGY>  (393) 
0

>  <NONCOV_INTER_ENERGY_QM>  (393) 
0

>  <FF_Energy>  (393) 
-0.55

>  <QM_Energy>  (393) 
-6.17

>  <source>  (393) 
ETAM_MSM

>  <Index>  (393) 
2196

$$$$
ETAM-pdb2o1o-B-LYS-210:MSM-pdb2o1o-B-MET-206
     RDKit          3D

 20 18  0  0  0  0  0  0  0  0999 V2000
    1.2492    0.8975    0.0000 C   0  0  0  0  0  0  0  0  0  0  0  0
    1.2071    1.4858    0.8010 H   0  0  0  0  0  0  0  0  0  0  0  0
    1.2371    1.4422   -0.8315 H   0  0  0  0  0  0  0  0  0  0  0  0
    2.1676    0.3112    0.0332 H   0  0  0  0  0  0  0  0  0  0  0  0
    0.0000    0.0000    0.0000 C   0  0  0  0  0  0  0  0  0  0  0  0
    0.0145   -0.5690   -0.8159 H   0  0  0  0  0  0  0  0  0  0  0  0
    0.0143   -0.5689    0.8163 H   0  0  0  0  0  0  0  0  0  0  0  0
   -1.2492    0.8325   -0.0000 N   0  0  0  0  0  4  0  0  0  0  0  0
   -1.0322    1.7446    0.3400 H   0  0  0  0  0  0  0  0  0  0  0  0
   -1.6000    0.8925   -0.9320 H   0  0  0  0  0  0  0  0  0  0  0  0
   -1.9274    0.4017    0.5910 H   0  0  0  0  0  0  0  0  0  0  0  0
    0.9643    0.1994   -4.6591 C   0  0  0  0  0  0  0  0  0  0  0  0
    1.5082    0.1482   -3.8071 H   0  0  0  0  0  0  0  0  0  0  0  0
    1.3964    0.8928   -5.2559 H   0  0  0  0  0  0  0  0  0  0  0  0
    1.0060   -0.7684   -5.1587 H   0  0  0  0  0  0  0  0  0  0  0  0
   -0.7656    0.6628   -4.2879 S   0  0  0  0  0  0  0  0  0  0  0  0
   -1.2406   -0.7283   -3.2333 C   0  0  0  0  0  0  0  0  0  0  0  0
   -1.0318   -0.5050   -2.2835 H   0  0  0  0  0  0  0  0  0  0  0  0
   -2.2191   -0.8961   -3.3342 H   0  0  0  0  0  0  0  0  0  0  0  0
   -0.7284   -1.5394   -3.5109 H   0  0  0  0  0  0  0  0  0  0  0  0
  1  5  1  0
  5  8  1  0
  1  2  1  0
  1  3  1  0
  1  4  1  0
  5  6  1  0
  5  7  1  0
  8  9  1  0
  8 10  1  0
  8 11  1  0
 12 16  1  0
 16 17  1  0
 12 13  1  0
 12 14  1  0
 12 15  1  0
 17 18  1  0
 17 19  1  0
 17 20  1  0
M  CHG  1   8   1
M  END
>  <PDB_ID>  (394) 
pdb2o1o

>  <RESIDUE_NAME>  (394) 
LYS   MET

>  <FRAG_NAME>  (394) 
ETAM   MSM

>  <FRAG_ATOM_NUM>  (394) 
fragi: 11  fragj: 9

>  <atom.prop.CHAIN_ID>  (394) 
A A A A A A A A A A A Z Z Z Z Z Z Z Z Z

>  <atom.prop.IS_HEAVY_ATOM>  (394) 
1 0 0 0 1 0 0 1 0 0 0 1 0 0 0 1 1 0 0 0

>  <DIFUSE_FUNC_ATOM>  (394) 
n/a

>  <FINAL_SINGLE_POINT_ENERGY>  (394) 
0

>  <NONCOV_INTER_ENERGY_QM>  (394) 
0

>  <FF_Energy>  (394) 
2.6

>  <QM_Energy>  (394) 
-2.5

>  <source>  (394) 
ETAM_MSM

>  <Index>  (394) 
2204

$$$$
ETAM-pdb2o4l-B-LYS-20:MSM-pdb2o4l-B-MET-36
     RDKit          3D

 20 18  0  0  0  0  0  0  0  0999 V2000
    1.2338    0.8610   -0.0000 C   0  0  0  0  0  0  0  0  0  0  0  0
    1.9970    0.3314    0.3850 H   0  0  0  0  0  0  0  0  0  0  0  0
    1.0701    1.6605    0.5879 H   0  0  0  0  0  0  0  0  0  0  0  0
    1.5215    1.2122   -0.9909 H   0  0  0  0  0  0  0  0  0  0  0  0
    0.0000    0.0000    0.0000 C   0  0  0  0  0  0  0  0  0  0  0  0
    0.0024   -0.5833   -0.8165 H   0  0  0  0  0  0  0  0  0  0  0  0
    0.0020   -0.5830    0.8165 H   0  0  0  0  0  0  0  0  0  0  0  0
   -1.2338    0.8275   -0.0000 N   0  0  0  0  0  4  0  0  0  0  0  0
   -0.9866    1.7945   -0.0669 H   0  0  0  0  0  0  0  0  0  0  0  0
   -1.8045    0.5742   -0.7811 H   0  0  0  0  0  0  0  0  0  0  0  0
   -1.7402    0.6705    0.8480 H   0  0  0  0  0  0  0  0  0  0  0  0
   -2.9779   -1.4677    3.7228 C   0  0  0  0  0  0  0  0  0  0  0  0
   -3.0991   -0.7584    4.4553 H   0  0  0  0  0  0  0  0  0  0  0  0
   -3.3282   -2.3420    4.1302 H   0  0  0  0  0  0  0  0  0  0  0  0
   -3.6246   -1.2017    2.8867 H   0  0  0  0  0  0  0  0  0  0  0  0
   -1.2496   -1.6219    3.2526 S   0  0  0  0  0  0  0  0  0  0  0  0
   -1.3311   -2.9412    2.0313 C   0  0  0  0  0  0  0  0  0  0  0  0
   -1.4803   -2.5457    1.1257 H   0  0  0  0  0  0  0  0  0  0  0  0
   -0.4717   -3.4515    2.0362 H   0  0  0  0  0  0  0  0  0  0  0  0
   -2.0866   -3.5557    2.2567 H   0  0  0  0  0  0  0  0  0  0  0  0
  1  5  1  0
  5  8  1  0
  1  2  1  0
  1  3  1  0
  1  4  1  0
  5  6  1  0
  5  7  1  0
  8  9  1  0
  8 10  1  0
  8 11  1  0
 12 16  1  0
 16 17  1  0
 12 13  1  0
 12 14  1  0
 12 15  1  0
 17 18  1  0
 17 19  1  0
 17 20  1  0
M  CHG  1   8   1
M  END
>  <PDB_ID>  (395) 
pdb2o4l

>  <RESIDUE_NAME>  (395) 
LYS   MET

>  <FRAG_NAME>  (395) 
ETAM   MSM

>  <FRAG_ATOM_NUM>  (395) 
fragi: 11  fragj: 9

>  <atom.prop.CHAIN_ID>  (395) 
A A A A A A A A A A A Z Z Z Z Z Z Z Z Z

>  <atom.prop.IS_HEAVY_ATOM>  (395) 
1 0 0 0 1 0 0 1 0 0 0 1 0 0 0 1 1 0 0 0

>  <DIFUSE_FUNC_ATOM>  (395) 
n/a

>  <FINAL_SINGLE_POINT_ENERGY>  (395) 
0

>  <NONCOV_INTER_ENERGY_QM>  (395) 
0

>  <FF_Energy>  (395) 
-3.19

>  <QM_Energy>  (395) 
-8.7

>  <source>  (395) 
ETAM_MSM

>  <Index>  (395) 
2213

$$$$
ETAM-pdb2o4n-B-LYS-20:MSM-pdb2o4n-B-MET-36
     RDKit          3D

 20 18  0  0  0  0  0  0  0  0999 V2000
    1.2085    0.9084   -0.0000 C   0  0  0  0  0  0  0  0  0  0  0  0
    1.4181    1.1642    0.9257 H   0  0  0  0  0  0  0  0  0  0  0  0
    1.0246    1.6871   -0.5713 H   0  0  0  0  0  0  0  0  0  0  0  0
    2.0528    0.3568   -0.4135 H   0  0  0  0  0  0  0  0  0  0  0  0
    0.0000    0.0000    0.0000 C   0  0  0  0  0  0  0  0  0  0  0  0
    0.0295   -0.5729   -0.8159 H   0  0  0  0  0  0  0  0  0  0  0  0
    0.0290   -0.5726    0.8166 H   0  0  0  0  0  0  0  0  0  0  0  0
   -1.2085    0.8100   -0.0000 N   0  0  0  0  0  4  0  0  0  0  0  0
   -1.0626    1.6535   -0.5269 H   0  0  0  0  0  0  0  0  0  0  0  0
   -1.9690    0.3005   -0.4140 H   0  0  0  0  0  0  0  0  0  0  0  0
   -1.4618    1.0582    0.9410 H   0  0  0  0  0  0  0  0  0  0  0  0
   -4.2037    3.0317    1.8289 C   0  0  0  0  0  0  0  0  0  0  0  0
   -4.3650    3.9553    1.3760 H   0  0  0  0  0  0  0  0  0  0  0  0
   -4.9392    2.9933    2.5643 H   0  0  0  0  0  0  0  0  0  0  0  0
   -4.4365    2.2622    1.0929 H   0  0  0  0  0  0  0  0  0  0  0  0
   -2.5725    2.9410    2.5442 S   0  0  0  0  0  0  0  0  0  0  0  0
   -2.5540    1.2314    3.1531 C   0  0  0  0  0  0  0  0  0  0  0  0
   -1.9564    0.6865    2.5701 H   0  0  0  0  0  0  0  0  0  0  0  0
   -2.2140    1.2248    4.0907 H   0  0  0  0  0  0  0  0  0  0  0  0
   -3.4822    0.8675    3.1250 H   0  0  0  0  0  0  0  0  0  0  0  0
  1  5  1  0
  5  8  1  0
  1  2  1  0
  1  3  1  0
  1  4  1  0
  5  6  1  0
  5  7  1  0
  8  9  1  0
  8 10  1  0
  8 11  1  0
 12 16  1  0
 16 17  1  0
 12 13  1  0
 12 14  1  0
 12 15  1  0
 17 18  1  0
 17 19  1  0
 17 20  1  0
M  CHG  1   8   1
M  END
>  <PDB_ID>  (396) 
pdb2o4n

>  <RESIDUE_NAME>  (396) 
LYS   MET

>  <FRAG_NAME>  (396) 
ETAM   MSM

>  <FRAG_ATOM_NUM>  (396) 
fragi: 11  fragj: 9

>  <atom.prop.CHAIN_ID>  (396) 
A A A A A A A A A A A Z Z Z Z Z Z Z Z Z

>  <atom.prop.IS_HEAVY_ATOM>  (396) 
1 0 0 0 1 0 0 1 0 0 0 1 0 0 0 1 1 0 0 0

>  <DIFUSE_FUNC_ATOM>  (396) 
n/a

>  <FINAL_SINGLE_POINT_ENERGY>  (396) 
0

>  <NONCOV_INTER_ENERGY_QM>  (396) 
0

>  <FF_Energy>  (396) 
-2.67

>  <QM_Energy>  (396) 
-8.26

>  <source>  (396) 
ETAM_MSM

>  <Index>  (396) 
2214

$$$$
ETAM-pdb2o56-A-LYS-78:MSM-pdb2o56-A-MET-67
     RDKit          3D

 20 18  0  0  0  0  0  0  0  0999 V2000
    1.2587    0.8761    0.0000 C   0  0  0  0  0  0  0  0  0  0  0  0
    1.1681    1.5595    0.7045 H   0  0  0  0  0  0  0  0  0  0  0  0
    1.3624    1.2796   -0.8926 H   0  0  0  0  0  0  0  0  0  0  0  0
    2.1378    0.2682    0.2140 H   0  0  0  0  0  0  0  0  0  0  0  0
    0.0000    0.0000    0.0000 C   0  0  0  0  0  0  0  0  0  0  0  0
    0.0218   -0.5901   -0.8161 H   0  0  0  0  0  0  0  0  0  0  0  0
    0.0219   -0.5895    0.8164 H   0  0  0  0  0  0  0  0  0  0  0  0
   -1.2587    0.7923   -0.0000 N   0  0  0  0  0  4  0  0  0  0  0  0
   -1.9918    0.2507   -0.4098 H   0  0  0  0  0  0  0  0  0  0  0  0
   -1.5025    1.0276    0.9401 H   0  0  0  0  0  0  0  0  0  0  0  0
   -1.1246    1.6291   -0.5307 H   0  0  0  0  0  0  0  0  0  0  0  0
   -1.8076    5.0893   -1.3213 C   0  0  0  0  0  0  0  0  0  0  0  0
   -2.2152    5.1661   -0.3700 H   0  0  0  0  0  0  0  0  0  0  0  0
   -2.5617    4.6392   -1.8756 H   0  0  0  0  0  0  0  0  0  0  0  0
   -1.6629    6.0985   -1.7071 H   0  0  0  0  0  0  0  0  0  0  0  0
   -0.3295    4.0455   -1.2960 S   0  0  0  0  0  0  0  0  0  0  0  0
    0.4876    4.6997    0.1843 C   0  0  0  0  0  0  0  0  0  0  0  0
    0.1947    5.6426    0.3277 H   0  0  0  0  0  0  0  0  0  0  0  0
    0.2321    4.1414    0.9696 H   0  0  0  0  0  0  0  0  0  0  0  0
    1.4752    4.6672    0.0509 H   0  0  0  0  0  0  0  0  0  0  0  0
  1  5  1  0
  5  8  1  0
  1  2  1  0
  1  3  1  0
  1  4  1  0
  5  6  1  0
  5  7  1  0
  8  9  1  0
  8 10  1  0
  8 11  1  0
 12 16  1  0
 16 17  1  0
 12 13  1  0
 12 14  1  0
 12 15  1  0
 17 18  1  0
 17 19  1  0
 17 20  1  0
M  CHG  1   8   1
M  END
>  <PDB_ID>  (397) 
pdb2o56

>  <RESIDUE_NAME>  (397) 
LYS   MET

>  <FRAG_NAME>  (397) 
ETAM   MSM

>  <FRAG_ATOM_NUM>  (397) 
fragi: 11  fragj: 9

>  <atom.prop.CHAIN_ID>  (397) 
A A A A A A A A A A A Z Z Z Z Z Z Z Z Z

>  <atom.prop.IS_HEAVY_ATOM>  (397) 
1 0 0 0 1 0 0 1 0 0 0 1 0 0 0 1 1 0 0 0

>  <DIFUSE_FUNC_ATOM>  (397) 
n/a

>  <FINAL_SINGLE_POINT_ENERGY>  (397) 
0

>  <NONCOV_INTER_ENERGY_QM>  (397) 
0

>  <FF_Energy>  (397) 
-5.15

>  <QM_Energy>  (397) 
-14.4

>  <source>  (397) 
ETAM_MSM

>  <Index>  (397) 
2220

$$$$
ETAM-pdb2o56-B-LYS-78:MSM-pdb2o56-B-MET-67
     RDKit          3D

 20 18  0  0  0  0  0  0  0  0999 V2000
    1.2442    0.8872    0.0000 C   0  0  0  0  0  0  0  0  0  0  0  0
    1.2180    1.4635    0.7969 H   0  0  0  0  0  0  0  0  0  0  0  0
    1.2588    1.4064   -0.8352 H   0  0  0  0  0  0  0  0  0  0  0  0
    2.1315    0.2557    0.0446 H   0  0  0  0  0  0  0  0  0  0  0  0
    0.0000    0.0000    0.0000 C   0  0  0  0  0  0  0  0  0  0  0  0
    0.0096   -0.5713   -0.8160 H   0  0  0  0  0  0  0  0  0  0  0  0
    0.0088   -0.5712    0.8166 H   0  0  0  0  0  0  0  0  0  0  0  0
   -1.2442    0.8363   -0.0000 N   0  0  0  0  0  4  0  0  0  0  0  0
   -2.0138    0.2749   -0.2971 H   0  0  0  0  0  0  0  0  0  0  0  0
   -1.4089    1.1764    0.9240 H   0  0  0  0  0  0  0  0  0  0  0  0
   -1.1215    1.6028   -0.6266 H   0  0  0  0  0  0  0  0  0  0  0  0
   -1.8947    5.1277   -1.0330 C   0  0  0  0  0  0  0  0  0  0  0  0
   -2.1259    5.3241   -0.0613 H   0  0  0  0  0  0  0  0  0  0  0  0
   -2.6897    4.6276   -1.4266 H   0  0  0  0  0  0  0  0  0  0  0  0
   -1.7884    6.0760   -1.5597 H   0  0  0  0  0  0  0  0  0  0  0  0
   -0.3903    4.1413   -1.1511 S   0  0  0  0  0  0  0  0  0  0  0  0
    0.4471    4.7004    0.3522 C   0  0  0  0  0  0  0  0  0  0  0  0
    0.1384    5.6235    0.5743 H   0  0  0  0  0  0  0  0  0  0  0  0
    0.2239    4.0797    1.1007 H   0  0  0  0  0  0  0  0  0  0  0  0
    1.4325    4.7019    0.1958 H   0  0  0  0  0  0  0  0  0  0  0  0
  1  5  1  0
  5  8  1  0
  1  2  1  0
  1  3  1  0
  1  4  1  0
  5  6  1  0
  5  7  1  0
  8  9  1  0
  8 10  1  0
  8 11  1  0
 12 16  1  0
 16 17  1  0
 12 13  1  0
 12 14  1  0
 12 15  1  0
 17 18  1  0
 17 19  1  0
 17 20  1  0
M  CHG  1   8   1
M  END
>  <PDB_ID>  (398) 
pdb2o56

>  <RESIDUE_NAME>  (398) 
LYS   MET

>  <FRAG_NAME>  (398) 
ETAM   MSM

>  <FRAG_ATOM_NUM>  (398) 
fragi: 11  fragj: 9

>  <atom.prop.CHAIN_ID>  (398) 
A A A A A A A A A A A Z Z Z Z Z Z Z Z Z

>  <atom.prop.IS_HEAVY_ATOM>  (398) 
1 0 0 0 1 0 0 1 0 0 0 1 0 0 0 1 1 0 0 0

>  <DIFUSE_FUNC_ATOM>  (398) 
n/a

>  <FINAL_SINGLE_POINT_ENERGY>  (398) 
0

>  <NONCOV_INTER_ENERGY_QM>  (398) 
0

>  <FF_Energy>  (398) 
-5.11

>  <QM_Energy>  (398) 
-13.89

>  <source>  (398) 
ETAM_MSM

>  <Index>  (398) 
2223

$$$$
ETAM-pdb2o56-D-LYS-78:MSM-pdb2o56-D-MET-67
     RDKit          3D

 20 18  0  0  0  0  0  0  0  0999 V2000
    1.2483    0.8798   -0.0000 C   0  0  0  0  0  0  0  0  0  0  0  0
    1.1149    1.6222    0.6339 H   0  0  0  0  0  0  0  0  0  0  0  0
    1.4093    1.2030   -0.9167 H   0  0  0  0  0  0  0  0  0  0  0  0
    2.1120    0.2979    0.3220 H   0  0  0  0  0  0  0  0  0  0  0  0
    0.0000    0.0000    0.0000 C   0  0  0  0  0  0  0  0  0  0  0  0
    0.0195   -0.5847   -0.8162 H   0  0  0  0  0  0  0  0  0  0  0  0
    0.0190   -0.5849    0.8162 H   0  0  0  0  0  0  0  0  0  0  0  0
   -1.2483    0.8043    0.0000 N   0  0  0  0  0  4  0  0  0  0  0  0
   -1.0316    1.7558    0.2208 H   0  0  0  0  0  0  0  0  0  0  0  0
   -1.6734    0.7605   -0.9039 H   0  0  0  0  0  0  0  0  0  0  0  0
   -1.8800    0.4388    0.6834 H   0  0  0  0  0  0  0  0  0  0  0  0
   -1.6434    5.0059   -1.6310 C   0  0  0  0  0  0  0  0  0  0  0  0
   -2.0426    5.1713   -0.6920 H   0  0  0  0  0  0  0  0  0  0  0  0
   -2.3944    4.5157   -2.1453 H   0  0  0  0  0  0  0  0  0  0  0  0
   -1.4796    5.9732   -2.1061 H   0  0  0  0  0  0  0  0  0  0  0  0
   -0.1699    3.9741   -1.5222 S   0  0  0  0  0  0  0  0  0  0  0  0
    0.5774    4.6919   -0.0414 C   0  0  0  0  0  0  0  0  0  0  0  0
    0.8467    5.6340   -0.2341 H   0  0  0  0  0  0  0  0  0  0  0  0
   -0.0886    4.6774    0.7025 H   0  0  0  0  0  0  0  0  0  0  0  0
    1.3802    4.1557    0.2135 H   0  0  0  0  0  0  0  0  0  0  0  0
  1  5  1  0
  5  8  1  0
  1  2  1  0
  1  3  1  0
  1  4  1  0
  5  6  1  0
  5  7  1  0
  8  9  1  0
  8 10  1  0
  8 11  1  0
 12 16  1  0
 16 17  1  0
 12 13  1  0
 12 14  1  0
 12 15  1  0
 17 18  1  0
 17 19  1  0
 17 20  1  0
M  CHG  1   8   1
M  END
>  <PDB_ID>  (399) 
pdb2o56

>  <RESIDUE_NAME>  (399) 
LYS   MET

>  <FRAG_NAME>  (399) 
ETAM   MSM

>  <FRAG_ATOM_NUM>  (399) 
fragi: 11  fragj: 9

>  <atom.prop.CHAIN_ID>  (399) 
A A A A A A A A A A A Z Z Z Z Z Z Z Z Z

>  <atom.prop.IS_HEAVY_ATOM>  (399) 
1 0 0 0 1 0 0 1 0 0 0 1 0 0 0 1 1 0 0 0

>  <DIFUSE_FUNC_ATOM>  (399) 
n/a

>  <FINAL_SINGLE_POINT_ENERGY>  (399) 
0

>  <NONCOV_INTER_ENERGY_QM>  (399) 
0

>  <FF_Energy>  (399) 
-4.81

>  <QM_Energy>  (399) 
-11.85

>  <source>  (399) 
ETAM_MSM

>  <Index>  (399) 
2227

$$$$
ETAM-pdb2o56-F-LYS-78:MSM-pdb2o56-F-MET-67
     RDKit          3D

 20 18  0  0  0  0  0  0  0  0999 V2000
    1.2373    0.8857   -0.0000 C   0  0  0  0  0  0  0  0  0  0  0  0
    1.1715    1.5240    0.7525 H   0  0  0  0  0  0  0  0  0  0  0  0
    1.2907    1.3563   -0.8674 H   0  0  0  0  0  0  0  0  0  0  0  0
    2.1340    0.2795    0.1288 H   0  0  0  0  0  0  0  0  0  0  0  0
    0.0000    0.0000    0.0000 C   0  0  0  0  0  0  0  0  0  0  0  0
    0.0060   -0.5696   -0.8162 H   0  0  0  0  0  0  0  0  0  0  0  0
    0.0058   -0.5704    0.8160 H   0  0  0  0  0  0  0  0  0  0  0  0
   -1.2373    0.8428    0.0000 N   0  0  0  0  0  4  0  0  0  0  0  0
   -1.8701    0.4951   -0.6888 H   0  0  0  0  0  0  0  0  0  0  0  0
   -1.6627    0.7992    0.9015 H   0  0  0  0  0  0  0  0  0  0  0  0
   -0.9906    1.7861   -0.2128 H   0  0  0  0  0  0  0  0  0  0  0  0
   -1.8493    5.1162   -0.6170 C   0  0  0  0  0  0  0  0  0  0  0  0
   -2.1746    5.1559    0.3677 H   0  0  0  0  0  0  0  0  0  0  0  0
   -2.6371    4.6632   -1.1186 H   0  0  0  0  0  0  0  0  0  0  0  0
   -1.7752    6.1416   -0.9792 H   0  0  0  0  0  0  0  0  0  0  0  0
   -0.3486    4.1397   -0.7602 S   0  0  0  0  0  0  0  0  0  0  0  0
    0.5085    4.6442    0.7234 C   0  0  0  0  0  0  0  0  0  0  0  0
    1.2437    3.9950    0.9270 H   0  0  0  0  0  0  0  0  0  0  0  0
    0.9015    5.5566    0.5932 H   0  0  0  0  0  0  0  0  0  0  0  0
   -0.1331    4.6682    1.4930 H   0  0  0  0  0  0  0  0  0  0  0  0
  1  5  1  0
  5  8  1  0
  1  2  1  0
  1  3  1  0
  1  4  1  0
  5  6  1  0
  5  7  1  0
  8  9  1  0
  8 10  1  0
  8 11  1  0
 12 16  1  0
 16 17  1  0
 12 13  1  0
 12 14  1  0
 12 15  1  0
 17 18  1  0
 17 19  1  0
 17 20  1  0
M  CHG  1   8   1
M  END
>  <PDB_ID>  (400) 
pdb2o56

>  <RESIDUE_NAME>  (400) 
LYS   MET

>  <FRAG_NAME>  (400) 
ETAM   MSM

>  <FRAG_ATOM_NUM>  (400) 
fragi: 11  fragj: 9

>  <atom.prop.CHAIN_ID>  (400) 
A A A A A A A A A A A Z Z Z Z Z Z Z Z Z

>  <atom.prop.IS_HEAVY_ATOM>  (400) 
1 0 0 0 1 0 0 1 0 0 0 1 0 0 0 1 1 0 0 0

>  <DIFUSE_FUNC_ATOM>  (400) 
n/a

>  <FINAL_SINGLE_POINT_ENERGY>  (400) 
0

>  <NONCOV_INTER_ENERGY_QM>  (400) 
0

>  <FF_Energy>  (400) 
-5.52

>  <QM_Energy>  (400) 
-15.87

>  <source>  (400) 
ETAM_MSM

>  <Index>  (400) 
2233

$$$$
ETAM-pdb2o56-G-LYS-78:MSM-pdb2o56-G-MET-67
     RDKit          3D

 20 18  0  0  0  0  0  0  0  0999 V2000
    1.2348    0.8933    0.0000 C   0  0  0  0  0  0  0  0  0  0  0  0
    1.1411    1.5635    0.7142 H   0  0  0  0  0  0  0  0  0  0  0  0
    1.3266    1.3066   -0.8875 H   0  0  0  0  0  0  0  0  0  0  0  0
    2.1155    0.2832    0.2005 H   0  0  0  0  0  0  0  0  0  0  0  0
    0.0000    0.0000    0.0000 C   0  0  0  0  0  0  0  0  0  0  0  0
    0.0163   -0.5724   -0.8157 H   0  0  0  0  0  0  0  0  0  0  0  0
    0.0152   -0.5732    0.8166 H   0  0  0  0  0  0  0  0  0  0  0  0
   -1.2348    0.8261   -0.0000 N   0  0  0  0  0  4  0  0  0  0  0  0
   -2.0272    0.2410   -0.1743 H   0  0  0  0  0  0  0  0  0  0  0  0
   -1.3384    1.2707    0.8901 H   0  0  0  0  0  0  0  0  0  0  0  0
   -1.1702    1.5222   -0.7156 H   0  0  0  0  0  0  0  0  0  0  0  0
   -1.8461    4.8901   -1.9958 C   0  0  0  0  0  0  0  0  0  0  0  0
   -2.1277    5.1851   -1.0605 H   0  0  0  0  0  0  0  0  0  0  0  0
   -2.6185    4.3351   -2.3647 H   0  0  0  0  0  0  0  0  0  0  0  0
   -1.7129    5.7733   -2.6206 H   0  0  0  0  0  0  0  0  0  0  0  0
   -0.3363    3.9040   -1.9212 S   0  0  0  0  0  0  0  0  0  0  0  0
    0.6090    4.8639   -0.7082 C   0  0  0  0  0  0  0  0  0  0  0  0
   -0.0025    5.1550    0.0234 H   0  0  0  0  0  0  0  0  0  0  0  0
    1.3356    4.2908   -0.3361 H   0  0  0  0  0  0  0  0  0  0  0  0
    1.0028    5.6616   -1.1596 H   0  0  0  0  0  0  0  0  0  0  0  0
  1  5  1  0
  5  8  1  0
  1  2  1  0
  1  3  1  0
  1  4  1  0
  5  6  1  0
  5  7  1  0
  8  9  1  0
  8 10  1  0
  8 11  1  0
 12 16  1  0
 16 17  1  0
 12 13  1  0
 12 14  1  0
 12 15  1  0
 17 18  1  0
 17 19  1  0
 17 20  1  0
M  CHG  1   8   1
M  END
>  <PDB_ID>  (401) 
pdb2o56

>  <RESIDUE_NAME>  (401) 
LYS   MET

>  <FRAG_NAME>  (401) 
ETAM   MSM

>  <FRAG_ATOM_NUM>  (401) 
fragi: 11  fragj: 9

>  <atom.prop.CHAIN_ID>  (401) 
A A A A A A A A A A A Z Z Z Z Z Z Z Z Z

>  <atom.prop.IS_HEAVY_ATOM>  (401) 
1 0 0 0 1 0 0 1 0 0 0 1 0 0 0 1 1 0 0 0

>  <DIFUSE_FUNC_ATOM>  (401) 
n/a

>  <FINAL_SINGLE_POINT_ENERGY>  (401) 
0

>  <NONCOV_INTER_ENERGY_QM>  (401) 
0

>  <FF_Energy>  (401) 
-4.99

>  <QM_Energy>  (401) 
-13.69

>  <source>  (401) 
ETAM_MSM

>  <Index>  (401) 
2236

$$$$
ETAM-pdb1jhd-A-LYS-147:MSM-pdb1jhd-A-MET-141
     RDKit          3D

 20 18  0  0  0  0  0  0  0  0999 V2000
    1.2823    0.8589   -0.0000 C   0  0  0  0  0  0  0  0  0  0  0  0
    1.4932    1.1001    0.9378 H   0  0  0  0  0  0  0  0  0  0  0  0
    1.1126    1.6681   -0.5454 H   0  0  0  0  0  0  0  0  0  0  0  0
    2.1251    0.3132   -0.4242 H   0  0  0  0  0  0  0  0  0  0  0  0
    0.0000    0.0000    0.0000 C   0  0  0  0  0  0  0  0  0  0  0  0
    0.0013   -0.5835   -0.8164 H   0  0  0  0  0  0  0  0  0  0  0  0
    0.0006   -0.5838    0.8161 H   0  0  0  0  0  0  0  0  0  0  0  0
   -1.2823    0.8283   -0.0000 N   0  0  0  0  0  4  0  0  0  0  0  0
   -1.0635    1.7425   -0.3203 H   0  0  0  0  0  0  0  0  0  0  0  0
   -1.9360    0.3917   -0.6077 H   0  0  0  0  0  0  0  0  0  0  0  0
   -1.6344    0.8588    0.9280 H   0  0  0  0  0  0  0  0  0  0  0  0
    1.4740    5.6281    1.3410 C   0  0  0  0  0  0  0  0  0  0  0  0
    1.9875    6.4563    1.6418 H   0  0  0  0  0  0  0  0  0  0  0  0
    0.4969    5.7943    1.5806 H   0  0  0  0  0  0  0  0  0  0  0  0
    1.5899    5.4673    0.2692 H   0  0  0  0  0  0  0  0  0  0  0  0
    2.0850    4.1587    2.3541 S   0  0  0  0  0  0  0  0  0  0  0  0
    0.6804    3.1087    2.2508 C   0  0  0  0  0  0  0  0  0  0  0  0
    0.8467    2.3604    1.5978 H   0  0  0  0  0  0  0  0  0  0  0  0
    0.4741    2.7057    3.1498 H   0  0  0  0  0  0  0  0  0  0  0  0
   -0.1254    3.6267    1.9417 H   0  0  0  0  0  0  0  0  0  0  0  0
  1  5  1  0
  5  8  1  0
  1  2  1  0
  1  3  1  0
  1  4  1  0
  5  6  1  0
  5  7  1  0
  8  9  1  0
  8 10  1  0
  8 11  1  0
 12 16  1  0
 16 17  1  0
 12 13  1  0
 12 14  1  0
 12 15  1  0
 17 18  1  0
 17 19  1  0
 17 20  1  0
M  CHG  1   8   1
M  END
>  <PDB_ID>  (402) 
pdb1jhd

>  <RESIDUE_NAME>  (402) 
LYS   MET

>  <FRAG_NAME>  (402) 
ETAM   MSM

>  <FRAG_ATOM_NUM>  (402) 
fragi: 11  fragj: 9

>  <atom.prop.CHAIN_ID>  (402) 
A A A A A A A A A A A Z Z Z Z Z Z Z Z Z

>  <atom.prop.IS_HEAVY_ATOM>  (402) 
1 0 0 0 1 0 0 1 0 0 0 1 0 0 0 1 1 0 0 0

>  <DIFUSE_FUNC_ATOM>  (402) 
n/a

>  <FINAL_SINGLE_POINT_ENERGY>  (402) 
0

>  <NONCOV_INTER_ENERGY_QM>  (402) 
0

>  <FF_Energy>  (402) 
21.57

>  <QM_Energy>  (402) 
4.29

>  <source>  (402) 
ETAM_MSM

>  <Index>  (402) 
2241

$$$$
ETAM-pdb1jeh-B-LYS-321:MSM-pdb1jeh-B-MET-346
     RDKit          3D

 20 18  0  0  0  0  0  0  0  0999 V2000
    1.2153    0.9057    0.0000 C   0  0  0  0  0  0  0  0  0  0  0  0
    1.2018    1.4543   -0.8183 H   0  0  0  0  0  0  0  0  0  0  0  0
    2.0262    0.3491    0.0573 H   0  0  0  0  0  0  0  0  0  0  0  0
    1.1667    1.5597    0.8706 H   0  0  0  0  0  0  0  0  0  0  0  0
    0.0000    0.0000    0.0000 C   0  0  0  0  0  0  0  0  0  0  0  0
    0.0374   -0.5810   -0.8157 H   0  0  0  0  0  0  0  0  0  0  0  0
    0.0368   -0.5809    0.8167 H   0  0  0  0  0  0  0  0  0  0  0  0
   -1.2153    0.7872   -0.0000 N   0  0  0  0  0  4  0  0  0  0  0  0
   -1.9887    0.2408    0.3424 H   0  0  0  0  0  0  0  0  0  0  0  0
   -1.1101    1.5958    0.5891 H   0  0  0  0  0  0  0  0  0  0  0  0
   -1.4331    1.0974   -0.9324 H   0  0  0  0  0  0  0  0  0  0  0  0
   -4.5793   -1.5183    2.6299 C   0  0  0  0  0  0  0  0  0  0  0  0
   -5.3718   -1.9372    2.1567 H   0  0  0  0  0  0  0  0  0  0  0  0
   -4.7969   -1.4961    3.6199 H   0  0  0  0  0  0  0  0  0  0  0  0
   -3.6891   -2.1244    2.4616 H   0  0  0  0  0  0  0  0  0  0  0  0
   -4.2928    0.1523    2.0136 S   0  0  0  0  0  0  0  0  0  0  0  0
   -4.8431    0.9995    3.4604 C   0  0  0  0  0  0  0  0  0  0  0  0
   -4.3626    0.6517    4.2728 H   0  0  0  0  0  0  0  0  0  0  0  0
   -4.6627    1.9857    3.3774 H   0  0  0  0  0  0  0  0  0  0  0  0
   -5.8310    0.8641    3.5905 H   0  0  0  0  0  0  0  0  0  0  0  0
  1  5  1  0
  5  8  1  0
  1  2  1  0
  1  3  1  0
  1  4  1  0
  5  6  1  0
  5  7  1  0
  8  9  1  0
  8 10  1  0
  8 11  1  0
 12 16  1  0
 16 17  1  0
 12 13  1  0
 12 14  1  0
 12 15  1  0
 17 18  1  0
 17 19  1  0
 17 20  1  0
M  CHG  1   8   1
M  END
>  <PDB_ID>  (403) 
pdb1jeh

>  <RESIDUE_NAME>  (403) 
LYS   MET

>  <FRAG_NAME>  (403) 
ETAM   MSM

>  <FRAG_ATOM_NUM>  (403) 
fragi: 11  fragj: 9

>  <atom.prop.CHAIN_ID>  (403) 
A A A A A A A A A A A Z Z Z Z Z Z Z Z Z

>  <atom.prop.IS_HEAVY_ATOM>  (403) 
1 0 0 0 1 0 0 1 0 0 0 1 0 0 0 1 1 0 0 0

>  <DIFUSE_FUNC_ATOM>  (403) 
n/a

>  <FINAL_SINGLE_POINT_ENERGY>  (403) 
0

>  <NONCOV_INTER_ENERGY_QM>  (403) 
0

>  <FF_Energy>  (403) 
-4.84

>  <QM_Energy>  (403) 
-12.16

>  <source>  (403) 
ETAM_MSM

>  <Index>  (403) 
2249

$$$$
ETAM-pdb1jl2-A-LYS-50:MSM-pdb1jl2-A-MET-47
     RDKit          3D

 20 18  0  0  0  0  0  0  0  0999 V2000
    1.2213    0.8910   -0.0000 C   0  0  0  0  0  0  0  0  0  0  0  0
    1.2202    1.4618    0.8157 H   0  0  0  0  0  0  0  0  0  0  0  0
    1.2197    1.4613   -0.8178 H   0  0  0  0  0  0  0  0  0  0  0  0
    2.1567    0.3313    0.0003 H   0  0  0  0  0  0  0  0  0  0  0  0
    0.0000    0.0000    0.0000 C   0  0  0  0  0  0  0  0  0  0  0  0
    0.0192   -0.5772   -0.8156 H   0  0  0  0  0  0  0  0  0  0  0  0
    0.0199   -0.5758    0.8174 H   0  0  0  0  0  0  0  0  0  0  0  0
   -1.2213    0.8159   -0.0000 N   0  0  0  0  0  4  0  0  0  0  0  0
   -1.8353    0.5112    0.7323 H   0  0  0  0  0  0  0  0  0  0  0  0
   -0.9873    1.7803    0.1486 H   0  0  0  0  0  0  0  0  0  0  0  0
   -1.6920    0.7256   -0.8807 H   0  0  0  0  0  0  0  0  0  0  0  0
   -0.2572    1.6195    5.6984 C   0  0  0  0  0  0  0  0  0  0  0  0
   -0.9870    0.8939    5.7518 H   0  0  0  0  0  0  0  0  0  0  0  0
   -0.5403    2.3275    6.3917 H   0  0  0  0  0  0  0  0  0  0  0  0
    0.6868    1.1805    6.0213 H   0  0  0  0  0  0  0  0  0  0  0  0
   -0.2160    2.3532    4.0257 S   0  0  0  0  0  0  0  0  0  0  0  0
   -0.6403    0.9439    3.0153 C   0  0  0  0  0  0  0  0  0  0  0  0
   -1.5711    0.6409    3.2294 H   0  0  0  0  0  0  0  0  0  0  0  0
   -0.5908    1.1943    2.0461 H   0  0  0  0  0  0  0  0  0  0  0  0
   -0.0005    0.1935    3.1953 H   0  0  0  0  0  0  0  0  0  0  0  0
  1  5  1  0
  5  8  1  0
  1  2  1  0
  1  3  1  0
  1  4  1  0
  5  6  1  0
  5  7  1  0
  8  9  1  0
  8 10  1  0
  8 11  1  0
 12 16  1  0
 16 17  1  0
 12 13  1  0
 12 14  1  0
 12 15  1  0
 17 18  1  0
 17 19  1  0
 17 20  1  0
M  CHG  1   8   1
M  END
>  <PDB_ID>  (404) 
pdb1jl2

>  <RESIDUE_NAME>  (404) 
LYS   MET

>  <FRAG_NAME>  (404) 
ETAM   MSM

>  <FRAG_ATOM_NUM>  (404) 
fragi: 11  fragj: 9

>  <atom.prop.CHAIN_ID>  (404) 
A A A A A A A A A A A Z Z Z Z Z Z Z Z Z

>  <atom.prop.IS_HEAVY_ATOM>  (404) 
1 0 0 0 1 0 0 1 0 0 0 1 0 0 0 1 1 0 0 0

>  <DIFUSE_FUNC_ATOM>  (404) 
n/a

>  <FINAL_SINGLE_POINT_ENERGY>  (404) 
0

>  <NONCOV_INTER_ENERGY_QM>  (404) 
0

>  <FF_Energy>  (404) 
9.25

>  <QM_Energy>  (404) 
1.45

>  <source>  (404) 
ETAM_MSM

>  <Index>  (404) 
2259

$$$$
ETAM-pdb1jm6-A-LYS-1279:MSM-pdb1jm6-B-MET-1341
     RDKit          3D

 20 18  0  0  0  0  0  0  0  0999 V2000
    1.2413    0.8636   -0.0000 C   0  0  0  0  0  0  0  0  0  0  0  0
    1.0387    1.7164    0.4863 H   0  0  0  0  0  0  0  0  0  0  0  0
    1.4845    1.0743   -0.9485 H   0  0  0  0  0  0  0  0  0  0  0  0
    2.0928    0.3822    0.4810 H   0  0  0  0  0  0  0  0  0  0  0  0
    0.0000    0.0000    0.0000 C   0  0  0  0  0  0  0  0  0  0  0  0
   -0.0030   -0.5770   -0.8159 H   0  0  0  0  0  0  0  0  0  0  0  0
   -0.0030   -0.5773    0.8166 H   0  0  0  0  0  0  0  0  0  0  0  0
   -1.2413    0.8434   -0.0000 N   0  0  0  0  0  4  0  0  0  0  0  0
   -1.2843    1.3591   -0.8528 H   0  0  0  0  0  0  0  0  0  0  0  0
   -2.0384    0.2484    0.0776 H   0  0  0  0  0  0  0  0  0  0  0  0
   -1.2085    1.4706    0.7748 H   0  0  0  0  0  0  0  0  0  0  0  0
   -1.1635   -3.0203    3.4762 C   0  0  0  0  0  0  0  0  0  0  0  0
   -0.3913   -3.5589    3.8591 H   0  0  0  0  0  0  0  0  0  0  0  0
   -1.3043   -3.3442    2.5223 H   0  0  0  0  0  0  0  0  0  0  0  0
   -2.0608   -3.2409    4.0543 H   0  0  0  0  0  0  0  0  0  0  0  0
   -0.7904   -1.2530    3.5059 S   0  0  0  0  0  0  0  0  0  0  0  0
    0.2058   -1.1354    4.9909 C   0  0  0  0  0  0  0  0  0  0  0  0
    1.1383   -0.8652    4.7484 H   0  0  0  0  0  0  0  0  0  0  0  0
   -0.1885   -0.4508    5.6059 H   0  0  0  0  0  0  0  0  0  0  0  0
    0.2269   -2.0234    5.4521 H   0  0  0  0  0  0  0  0  0  0  0  0
  1  5  1  0
  5  8  1  0
  1  2  1  0
  1  3  1  0
  1  4  1  0
  5  6  1  0
  5  7  1  0
  8  9  1  0
  8 10  1  0
  8 11  1  0
 12 16  1  0
 16 17  1  0
 12 13  1  0
 12 14  1  0
 12 15  1  0
 17 18  1  0
 17 19  1  0
 17 20  1  0
M  CHG  1   8   1
M  END
>  <PDB_ID>  (405) 
pdb1jm6

>  <RESIDUE_NAME>  (405) 
LYS   MET

>  <FRAG_NAME>  (405) 
ETAM   MSM

>  <FRAG_ATOM_NUM>  (405) 
fragi: 11  fragj: 9

>  <atom.prop.CHAIN_ID>  (405) 
A A A A A A A A A A A Z Z Z Z Z Z Z Z Z

>  <atom.prop.IS_HEAVY_ATOM>  (405) 
1 0 0 0 1 0 0 1 0 0 0 1 0 0 0 1 1 0 0 0

>  <DIFUSE_FUNC_ATOM>  (405) 
n/a

>  <FINAL_SINGLE_POINT_ENERGY>  (405) 
0

>  <NONCOV_INTER_ENERGY_QM>  (405) 
0

>  <FF_Energy>  (405) 
-4.41

>  <QM_Energy>  (405) 
-9.76

>  <source>  (405) 
ETAM_MSM

>  <Index>  (405) 
2266

$$$$
ETAM-pdb1jmt-B-LYS-108:MSM-pdb1jmt-B-MET-105
     RDKit          3D

 20 18  0  0  0  0  0  0  0  0999 V2000
    1.2462    0.8752   -0.0000 C   0  0  0  0  0  0  0  0  0  0  0  0
    1.2293    1.4515    0.8184 H   0  0  0  0  0  0  0  0  0  0  0  0
    1.2256    1.4556   -0.8156 H   0  0  0  0  0  0  0  0  0  0  0  0
    2.1729    0.3012   -0.0024 H   0  0  0  0  0  0  0  0  0  0  0  0
    0.0000    0.0000    0.0000 C   0  0  0  0  0  0  0  0  0  0  0  0
    0.0025   -0.5733   -0.8163 H   0  0  0  0  0  0  0  0  0  0  0  0
    0.0022   -0.5746    0.8160 H   0  0  0  0  0  0  0  0  0  0  0  0
   -1.2462    0.8411   -0.0000 N   0  0  0  0  0  4  0  0  0  0  0  0
   -1.3726    1.2329    0.9084 H   0  0  0  0  0  0  0  0  0  0  0  0
   -1.1456    1.5693   -0.6733 H   0  0  0  0  0  0  0  0  0  0  0  0
   -2.0253    0.2652   -0.2346 H   0  0  0  0  0  0  0  0  0  0  0  0
   -2.6560   -3.1089    2.0219 C   0  0  0  0  0  0  0  0  0  0  0  0
   -2.9140   -3.1298    1.0321 H   0  0  0  0  0  0  0  0  0  0  0  0
   -3.4833   -3.4206    2.5352 H   0  0  0  0  0  0  0  0  0  0  0  0
   -1.8526   -3.8268    2.1872 H   0  0  0  0  0  0  0  0  0  0  0  0
   -2.2030   -1.4079    2.5230 S   0  0  0  0  0  0  0  0  0  0  0  0
   -3.7356   -0.7738    2.8429 C   0  0  0  0  0  0  0  0  0  0  0  0
   -4.4343   -1.5028    2.9836 H   0  0  0  0  0  0  0  0  0  0  0  0
   -3.7475   -0.1955    3.6825 H   0  0  0  0  0  0  0  0  0  0  0  0
   -4.0778   -0.1874    2.0827 H   0  0  0  0  0  0  0  0  0  0  0  0
  1  5  1  0
  5  8  1  0
  1  2  1  0
  1  3  1  0
  1  4  1  0
  5  6  1  0
  5  7  1  0
  8  9  1  0
  8 10  1  0
  8 11  1  0
 12 16  1  0
 16 17  1  0
 12 13  1  0
 12 14  1  0
 12 15  1  0
 17 18  1  0
 17 19  1  0
 17 20  1  0
M  CHG  1   8   1
M  END
>  <PDB_ID>  (406) 
pdb1jmt

>  <RESIDUE_NAME>  (406) 
LYS   MET

>  <FRAG_NAME>  (406) 
ETAM   MSM

>  <FRAG_ATOM_NUM>  (406) 
fragi: 11  fragj: 9

>  <atom.prop.CHAIN_ID>  (406) 
A A A A A A A A A A A Z Z Z Z Z Z Z Z Z

>  <atom.prop.IS_HEAVY_ATOM>  (406) 
1 0 0 0 1 0 0 1 0 0 0 1 0 0 0 1 1 0 0 0

>  <DIFUSE_FUNC_ATOM>  (406) 
n/a

>  <FINAL_SINGLE_POINT_ENERGY>  (406) 
0

>  <NONCOV_INTER_ENERGY_QM>  (406) 
0

>  <FF_Energy>  (406) 
-4.77

>  <QM_Energy>  (406) 
-11.35

>  <source>  (406) 
ETAM_MSM

>  <Index>  (406) 
2268

$$$$
ETAM-pdb1jnr-D-LYS-14:MSM-pdb1jnr-D-MET-37
     RDKit          3D

 20 18  0  0  0  0  0  0  0  0999 V2000
    1.2493    0.8724   -0.0000 C   0  0  0  0  0  0  0  0  0  0  0  0
    1.2470    1.4305    0.8224 H   0  0  0  0  0  0  0  0  0  0  0  0
    1.2345    1.4472   -0.8105 H   0  0  0  0  0  0  0  0  0  0  0  0
    2.1574    0.2697   -0.0125 H   0  0  0  0  0  0  0  0  0  0  0  0
    0.0000    0.0000    0.0000 C   0  0  0  0  0  0  0  0  0  0  0  0
    0.0145   -0.5857   -0.8164 H   0  0  0  0  0  0  0  0  0  0  0  0
    0.0141   -0.5859    0.8164 H   0  0  0  0  0  0  0  0  0  0  0  0
   -1.2493    0.8087    0.0000 N   0  0  0  0  0  4  0  0  0  0  0  0
   -1.9501    0.3361   -0.5336 H   0  0  0  0  0  0  0  0  0  0  0  0
   -1.5677    0.9275    0.9397 H   0  0  0  0  0  0  0  0  0  0  0  0
   -1.0651    1.7033   -0.4061 H   0  0  0  0  0  0  0  0  0  0  0  0
    1.2667   -1.0928   -4.8335 C   0  0  0  0  0  0  0  0  0  0  0  0
    0.9924   -1.6235   -5.6604 H   0  0  0  0  0  0  0  0  0  0  0  0
    1.1593   -1.7244   -4.0395 H   0  0  0  0  0  0  0  0  0  0  0  0
    2.3173   -0.8172   -4.9251 H   0  0  0  0  0  0  0  0  0  0  0  0
    0.2027    0.3636   -4.6333 S   0  0  0  0  0  0  0  0  0  0  0  0
    0.8238    1.0424   -3.1272 C   0  0  0  0  0  0  0  0  0  0  0  0
    0.5185    1.9946   -3.0220 H   0  0  0  0  0  0  0  0  0  0  0  0
    0.4922    0.5097   -2.3410 H   0  0  0  0  0  0  0  0  0  0  0  0
    1.8293    1.0256   -3.1250 H   0  0  0  0  0  0  0  0  0  0  0  0
  1  5  1  0
  5  8  1  0
  1  2  1  0
  1  3  1  0
  1  4  1  0
  5  6  1  0
  5  7  1  0
  8  9  1  0
  8 10  1  0
  8 11  1  0
 12 16  1  0
 16 17  1  0
 12 13  1  0
 12 14  1  0
 12 15  1  0
 17 18  1  0
 17 19  1  0
 17 20  1  0
M  CHG  1   8   1
M  END
>  <PDB_ID>  (407) 
pdb1jnr

>  <RESIDUE_NAME>  (407) 
LYS   MET

>  <FRAG_NAME>  (407) 
ETAM   MSM

>  <FRAG_ATOM_NUM>  (407) 
fragi: 11  fragj: 9

>  <atom.prop.CHAIN_ID>  (407) 
A A A A A A A A A A A Z Z Z Z Z Z Z Z Z

>  <atom.prop.IS_HEAVY_ATOM>  (407) 
1 0 0 0 1 0 0 1 0 0 0 1 0 0 0 1 1 0 0 0

>  <DIFUSE_FUNC_ATOM>  (407) 
n/a

>  <FINAL_SINGLE_POINT_ENERGY>  (407) 
0

>  <NONCOV_INTER_ENERGY_QM>  (407) 
0

>  <FF_Energy>  (407) 
7.13

>  <QM_Energy>  (407) 
1.49

>  <source>  (407) 
ETAM_MSM

>  <Index>  (407) 
2278

$$$$
ETAM-pdb2og4-A-LYS-2222:MSM-pdb2og4-A-MET-2210
     RDKit          3D

 20 18  0  0  0  0  0  0  0  0999 V2000
    1.2623    0.8780    0.0000 C   0  0  0  0  0  0  0  0  0  0  0  0
    1.1750    1.5463   -0.7330 H   0  0  0  0  0  0  0  0  0  0  0  0
    2.0485    0.2898   -0.1637 H   0  0  0  0  0  0  0  0  0  0  0  0
    1.4007    1.4035    0.9449 H   0  0  0  0  0  0  0  0  0  0  0  0
    0.0000    0.0000    0.0000 C   0  0  0  0  0  0  0  0  0  0  0  0
    0.0257   -0.5910   -0.8164 H   0  0  0  0  0  0  0  0  0  0  0  0
    0.0251   -0.5917    0.8159 H   0  0  0  0  0  0  0  0  0  0  0  0
   -1.2623    0.7851   -0.0000 N   0  0  0  0  0  4  0  0  0  0  0  0
   -1.1298    1.6262    0.5240 H   0  0  0  0  0  0  0  0  0  0  0  0
   -1.5122    1.0134   -0.9409 H   0  0  0  0  0  0  0  0  0  0  0  0
   -1.9915    0.2422    0.4169 H   0  0  0  0  0  0  0  0  0  0  0  0
   -1.8359    0.0322    3.3436 C   0  0  0  0  0  0  0  0  0  0  0  0
   -1.0033    0.5945    3.1161 H   0  0  0  0  0  0  0  0  0  0  0  0
   -1.5870   -0.9294    3.0693 H   0  0  0  0  0  0  0  0  0  0  0  0
   -1.9760    0.0533    4.4244 H   0  0  0  0  0  0  0  0  0  0  0  0
   -3.2722    0.6111    2.4062 S   0  0  0  0  0  0  0  0  0  0  0  0
   -3.4129    2.3095    2.9624 C   0  0  0  0  0  0  0  0  0  0  0  0
   -3.5960    2.9048    2.1785 H   0  0  0  0  0  0  0  0  0  0  0  0
   -4.1632    2.3859    3.6194 H   0  0  0  0  0  0  0  0  0  0  0  0
   -2.5577    2.5905    3.4007 H   0  0  0  0  0  0  0  0  0  0  0  0
  1  5  1  0
  5  8  1  0
  1  2  1  0
  1  3  1  0
  1  4  1  0
  5  6  1  0
  5  7  1  0
  8  9  1  0
  8 10  1  0
  8 11  1  0
 12 16  1  0
 16 17  1  0
 12 13  1  0
 12 14  1  0
 12 15  1  0
 17 18  1  0
 17 19  1  0
 17 20  1  0
M  CHG  1   8   1
M  END
>  <PDB_ID>  (408) 
pdb2og4

>  <RESIDUE_NAME>  (408) 
LYS   MET

>  <FRAG_NAME>  (408) 
ETAM   MSM

>  <FRAG_ATOM_NUM>  (408) 
fragi: 11  fragj: 9

>  <atom.prop.CHAIN_ID>  (408) 
A A A A A A A A A A A Z Z Z Z Z Z Z Z Z

>  <atom.prop.IS_HEAVY_ATOM>  (408) 
1 0 0 0 1 0 0 1 0 0 0 1 0 0 0 1 1 0 0 0

>  <DIFUSE_FUNC_ATOM>  (408) 
n/a

>  <FINAL_SINGLE_POINT_ENERGY>  (408) 
0

>  <NONCOV_INTER_ENERGY_QM>  (408) 
0

>  <FF_Energy>  (408) 
-3.89

>  <QM_Energy>  (408) 
-12.31

>  <source>  (408) 
ETAM_MSM

>  <Index>  (408) 
2282

$$$$
ETAM-pdb1jpm-B-LYS-17:MSM-pdb1jpm-B-MET-327
     RDKit          3D

 20 18  0  0  0  0  0  0  0  0999 V2000
    1.2647    0.8688   -0.0000 C   0  0  0  0  0  0  0  0  0  0  0  0
    1.1788    1.5506    0.7205 H   0  0  0  0  0  0  0  0  0  0  0  0
    1.3409    1.3133   -0.8872 H   0  0  0  0  0  0  0  0  0  0  0  0
    2.1689    0.2868    0.1779 H   0  0  0  0  0  0  0  0  0  0  0  0
    0.0000    0.0000    0.0000 C   0  0  0  0  0  0  0  0  0  0  0  0
    0.0181   -0.5920   -0.8160 H   0  0  0  0  0  0  0  0  0  0  0  0
    0.0180   -0.5917    0.8164 H   0  0  0  0  0  0  0  0  0  0  0  0
   -1.2647    0.7949   -0.0000 N   0  0  0  0  0  4  0  0  0  0  0  0
   -1.3108    1.3402    0.8356 H   0  0  0  0  0  0  0  0  0  0  0  0
   -1.2741    1.3976   -0.7961 H   0  0  0  0  0  0  0  0  0  0  0  0
   -2.0446    0.1725   -0.0389 H   0  0  0  0  0  0  0  0  0  0  0  0
   -1.8140    2.8266   -4.6115 C   0  0  0  0  0  0  0  0  0  0  0  0
   -2.5604    3.4048   -5.0251 H   0  0  0  0  0  0  0  0  0  0  0  0
   -1.6432    2.0837   -5.3063 H   0  0  0  0  0  0  0  0  0  0  0  0
   -0.9139    3.4369   -4.5370 H   0  0  0  0  0  0  0  0  0  0  0  0
   -2.3458    2.1220   -3.0421 S   0  0  0  0  0  0  0  0  0  0  0  0
   -1.2615    0.6918   -2.9022 C   0  0  0  0  0  0  0  0  0  0  0  0
   -0.8903    0.6472   -1.9750 H   0  0  0  0  0  0  0  0  0  0  0  0
   -1.7822   -0.1390   -3.0952 H   0  0  0  0  0  0  0  0  0  0  0  0
   -0.5130    0.7785   -3.5593 H   0  0  0  0  0  0  0  0  0  0  0  0
  1  5  1  0
  5  8  1  0
  1  2  1  0
  1  3  1  0
  1  4  1  0
  5  6  1  0
  5  7  1  0
  8  9  1  0
  8 10  1  0
  8 11  1  0
 12 16  1  0
 16 17  1  0
 12 13  1  0
 12 14  1  0
 12 15  1  0
 17 18  1  0
 17 19  1  0
 17 20  1  0
M  CHG  1   8   1
M  END
>  <PDB_ID>  (409) 
pdb1jpm

>  <RESIDUE_NAME>  (409) 
LYS   MET

>  <FRAG_NAME>  (409) 
ETAM   MSM

>  <FRAG_ATOM_NUM>  (409) 
fragi: 11  fragj: 9

>  <atom.prop.CHAIN_ID>  (409) 
A A A A A A A A A A A Z Z Z Z Z Z Z Z Z

>  <atom.prop.IS_HEAVY_ATOM>  (409) 
1 0 0 0 1 0 0 1 0 0 0 1 0 0 0 1 1 0 0 0

>  <DIFUSE_FUNC_ATOM>  (409) 
n/a

>  <FINAL_SINGLE_POINT_ENERGY>  (409) 
0

>  <NONCOV_INTER_ENERGY_QM>  (409) 
0

>  <FF_Energy>  (409) 
20.41

>  <QM_Energy>  (409) 
1.97

>  <source>  (409) 
ETAM_MSM

>  <Index>  (409) 
2290

$$$$
ETAM-pdb1jqi-A-LYS-319:MSM-pdb1jqi-A-MET-323
     RDKit          3D

 20 18  0  0  0  0  0  0  0  0999 V2000
    1.2482    0.8657   -0.0000 C   0  0  0  0  0  0  0  0  0  0  0  0
    2.0368    0.2864    0.1983 H   0  0  0  0  0  0  0  0  0  0  0  0
    1.1527    1.5607    0.7102 H   0  0  0  0  0  0  0  0  0  0  0  0
    1.4084    1.3611   -0.9576 H   0  0  0  0  0  0  0  0  0  0  0  0
    0.0000    0.0000    0.0000 C   0  0  0  0  0  0  0  0  0  0  0  0
    0.0133   -0.5885   -0.8161 H   0  0  0  0  0  0  0  0  0  0  0  0
    0.0128   -0.5887    0.8163 H   0  0  0  0  0  0  0  0  0  0  0  0
   -1.2482    0.8058    0.0000 N   0  0  0  0  0  4  0  0  0  0  0  0
   -1.3760    1.2219    0.9000 H   0  0  0  0  0  0  0  0  0  0  0  0
   -1.1811    1.5238   -0.6933 H   0  0  0  0  0  0  0  0  0  0  0  0
   -2.0266    0.2136   -0.2067 H   0  0  0  0  0  0  0  0  0  0  0  0
    0.7234   -0.5460   -5.4402 C   0  0  0  0  0  0  0  0  0  0  0  0
    1.1731   -1.3971   -5.7584 H   0  0  0  0  0  0  0  0  0  0  0  0
    1.4059   -0.0285   -4.8984 H   0  0  0  0  0  0  0  0  0  0  0  0
    0.4327    0.0474   -6.3071 H   0  0  0  0  0  0  0  0  0  0  0  0
   -0.7300   -0.9342   -4.4278 S   0  0  0  0  0  0  0  0  0  0  0  0
    0.0018   -1.9550   -3.1289 C   0  0  0  0  0  0  0  0  0  0  0  0
    0.9647   -2.1150   -3.3408 H   0  0  0  0  0  0  0  0  0  0  0  0
   -0.0771   -1.4794   -2.2550 H   0  0  0  0  0  0  0  0  0  0  0  0
   -0.4835   -2.8261   -3.0844 H   0  0  0  0  0  0  0  0  0  0  0  0
  1  5  1  0
  5  8  1  0
  1  2  1  0
  1  3  1  0
  1  4  1  0
  5  6  1  0
  5  7  1  0
  8  9  1  0
  8 10  1  0
  8 11  1  0
 12 16  1  0
 16 17  1  0
 12 13  1  0
 12 14  1  0
 12 15  1  0
 17 18  1  0
 17 19  1  0
 17 20  1  0
M  CHG  1   8   1
M  END
>  <PDB_ID>  (410) 
pdb1jqi

>  <RESIDUE_NAME>  (410) 
LYS   MET

>  <FRAG_NAME>  (410) 
ETAM   MSM

>  <FRAG_ATOM_NUM>  (410) 
fragi: 11  fragj: 9

>  <atom.prop.CHAIN_ID>  (410) 
A A A A A A A A A A A Z Z Z Z Z Z Z Z Z

>  <atom.prop.IS_HEAVY_ATOM>  (410) 
1 0 0 0 1 0 0 1 0 0 0 1 0 0 0 1 1 0 0 0

>  <DIFUSE_FUNC_ATOM>  (410) 
n/a

>  <FINAL_SINGLE_POINT_ENERGY>  (410) 
0

>  <NONCOV_INTER_ENERGY_QM>  (410) 
0

>  <FF_Energy>  (410) 
5.2

>  <QM_Energy>  (410) 
-1.56

>  <source>  (410) 
ETAM_MSM

>  <Index>  (410) 
2299

$$$$
ETAM-pdb1jql-A-LYS-254:MSM-pdb1jql-A-MET-315
     RDKit          3D

 20 18  0  0  0  0  0  0  0  0999 V2000
    1.2493    0.8693    0.0000 C   0  0  0  0  0  0  0  0  0  0  0  0
    1.1358    1.5833    0.6724 H   0  0  0  0  0  0  0  0  0  0  0  0
    1.3738    1.2393   -0.9057 H   0  0  0  0  0  0  0  0  0  0  0  0
    2.1136    0.2597    0.2638 H   0  0  0  0  0  0  0  0  0  0  0  0
    0.0000    0.0000    0.0000 C   0  0  0  0  0  0  0  0  0  0  0  0
    0.0126   -0.5866   -0.8161 H   0  0  0  0  0  0  0  0  0  0  0  0
    0.0120   -0.5867    0.8160 H   0  0  0  0  0  0  0  0  0  0  0  0
   -1.2493    0.8092    0.0000 N   0  0  0  0  0  4  0  0  0  0  0  0
   -1.7995    0.5687    0.7992 H   0  0  0  0  0  0  0  0  0  0  0  0
   -1.0149    1.7803    0.0343 H   0  0  0  0  0  0  0  0  0  0  0  0
   -1.7681    0.6186   -0.8333 H   0  0  0  0  0  0  0  0  0  0  0  0
    0.7382    3.2009   -3.3909 C   0  0  0  0  0  0  0  0  0  0  0  0
    1.3258    2.3612   -3.2909 H   0  0  0  0  0  0  0  0  0  0  0  0
    1.2852    3.8370   -3.9880 H   0  0  0  0  0  0  0  0  0  0  0  0
   -0.1660    2.9197   -3.9306 H   0  0  0  0  0  0  0  0  0  0  0  0
    0.4499    3.9722   -1.7422 S   0  0  0  0  0  0  0  0  0  0  0  0
   -0.2372    5.5720   -2.2103 C   0  0  0  0  0  0  0  0  0  0  0  0
   -1.1787    5.4481   -2.5208 H   0  0  0  0  0  0  0  0  0  0  0  0
   -0.2216    6.1819   -1.4194 H   0  0  0  0  0  0  0  0  0  0  0  0
    0.3107    5.9632   -2.9483 H   0  0  0  0  0  0  0  0  0  0  0  0
  1  5  1  0
  5  8  1  0
  1  2  1  0
  1  3  1  0
  1  4  1  0
  5  6  1  0
  5  7  1  0
  8  9  1  0
  8 10  1  0
  8 11  1  0
 12 16  1  0
 16 17  1  0
 12 13  1  0
 12 14  1  0
 12 15  1  0
 17 18  1  0
 17 19  1  0
 17 20  1  0
M  CHG  1   8   1
M  END
>  <PDB_ID>  (411) 
pdb1jql

>  <RESIDUE_NAME>  (411) 
LYS   MET

>  <FRAG_NAME>  (411) 
ETAM   MSM

>  <FRAG_ATOM_NUM>  (411) 
fragi: 11  fragj: 9

>  <atom.prop.CHAIN_ID>  (411) 
A A A A A A A A A A A Z Z Z Z Z Z Z Z Z

>  <atom.prop.IS_HEAVY_ATOM>  (411) 
1 0 0 0 1 0 0 1 0 0 0 1 0 0 0 1 1 0 0 0

>  <DIFUSE_FUNC_ATOM>  (411) 
n/a

>  <FINAL_SINGLE_POINT_ENERGY>  (411) 
0

>  <NONCOV_INTER_ENERGY_QM>  (411) 
0

>  <FF_Energy>  (411) 
-4.55

>  <QM_Energy>  (411) 
-10.94

>  <source>  (411) 
ETAM_MSM

>  <Index>  (411) 
2309

$$$$
ETAM-pdb2oiv-A-LYS-434:MSM-pdb2oiv-A-MET-431
     RDKit          3D

 20 18  0  0  0  0  0  0  0  0999 V2000
    1.2766    0.8488    0.0000 C   0  0  0  0  0  0  0  0  0  0  0  0
    2.0634    0.2411    0.1194 H   0  0  0  0  0  0  0  0  0  0  0  0
    1.2332    1.4886    0.7696 H   0  0  0  0  0  0  0  0  0  0  0  0
    1.4277    1.4242   -0.9134 H   0  0  0  0  0  0  0  0  0  0  0  0
    0.0000    0.0000    0.0000 C   0  0  0  0  0  0  0  0  0  0  0  0
    0.0103   -0.5985   -0.8166 H   0  0  0  0  0  0  0  0  0  0  0  0
    0.0107   -0.5991    0.8164 H   0  0  0  0  0  0  0  0  0  0  0  0
   -1.2766    0.7933   -0.0000 N   0  0  0  0  0  4  0  0  0  0  0  0
   -1.9074    0.3914   -0.6591 H   0  0  0  0  0  0  0  0  0  0  0  0
   -1.6749    0.7663    0.9135 H   0  0  0  0  0  0  0  0  0  0  0  0
   -1.0728    1.7356   -0.2542 H   0  0  0  0  0  0  0  0  0  0  0  0
    0.2115    4.8286   -0.9263 C   0  0  0  0  0  0  0  0  0  0  0  0
    0.4637    3.9284   -1.3795 H   0  0  0  0  0  0  0  0  0  0  0  0
    0.8874    4.9042   -0.1404 H   0  0  0  0  0  0  0  0  0  0  0  0
    0.4130    5.6350   -1.6315 H   0  0  0  0  0  0  0  0  0  0  0  0
   -1.4772    4.7659   -0.2993 S   0  0  0  0  0  0  0  0  0  0  0  0
   -1.2943    3.5298    0.9920 C   0  0  0  0  0  0  0  0  0  0  0  0
   -2.1795    3.3723    1.4297 H   0  0  0  0  0  0  0  0  0  0  0  0
   -0.9641    2.6754    0.5905 H   0  0  0  0  0  0  0  0  0  0  0  0
   -0.6379    3.8543    1.6731 H   0  0  0  0  0  0  0  0  0  0  0  0
  1  5  1  0
  5  8  1  0
  1  2  1  0
  1  3  1  0
  1  4  1  0
  5  6  1  0
  5  7  1  0
  8  9  1  0
  8 10  1  0
  8 11  1  0
 12 16  1  0
 16 17  1  0
 12 13  1  0
 12 14  1  0
 12 15  1  0
 17 18  1  0
 17 19  1  0
 17 20  1  0
M  CHG  1   8   1
M  END
>  <PDB_ID>  (412) 
pdb2oiv

>  <RESIDUE_NAME>  (412) 
LYS   MET

>  <FRAG_NAME>  (412) 
ETAM   MSM

>  <FRAG_ATOM_NUM>  (412) 
fragi: 11  fragj: 9

>  <atom.prop.CHAIN_ID>  (412) 
A A A A A A A A A A A Z Z Z Z Z Z Z Z Z

>  <atom.prop.IS_HEAVY_ATOM>  (412) 
1 0 0 0 1 0 0 1 0 0 0 1 0 0 0 1 1 0 0 0

>  <DIFUSE_FUNC_ATOM>  (412) 
n/a

>  <FINAL_SINGLE_POINT_ENERGY>  (412) 
0

>  <NONCOV_INTER_ENERGY_QM>  (412) 
0

>  <FF_Energy>  (412) 
20.52

>  <QM_Energy>  (412) 
9.89

>  <source>  (412) 
ETAM_MSM

>  <Index>  (412) 
2319

$$$$
ETAM-pdb1jtg-A-LYS-215:MSM-pdb1jtg-A-MET-129
     RDKit          3D

 20 18  0  0  0  0  0  0  0  0999 V2000
    1.2574    0.8518   -0.0000 C   0  0  0  0  0  0  0  0  0  0  0  0
    1.2632    1.4064    0.8269 H   0  0  0  0  0  0  0  0  0  0  0  0
    1.2428    1.4374   -0.8058 H   0  0  0  0  0  0  0  0  0  0  0  0
    2.1576    0.2377   -0.0224 H   0  0  0  0  0  0  0  0  0  0  0  0
    0.0000    0.0000    0.0000 C   0  0  0  0  0  0  0  0  0  0  0  0
    0.0046   -0.5913   -0.8159 H   0  0  0  0  0  0  0  0  0  0  0  0
    0.0044   -0.5913    0.8170 H   0  0  0  0  0  0  0  0  0  0  0  0
   -1.2574    0.8125    0.0000 N   0  0  0  0  0  4  0  0  0  0  0  0
   -2.0415    0.2018   -0.0895 H   0  0  0  0  0  0  0  0  0  0  0  0
   -1.3193    1.3198    0.8570 H   0  0  0  0  0  0  0  0  0  0  0  0
   -1.2352    1.4493   -0.7689 H   0  0  0  0  0  0  0  0  0  0  0  0
   -0.6428   -3.9133    0.4343 C   0  0  0  0  0  0  0  0  0  0  0  0
   -0.2831   -3.6444   -0.4722 H   0  0  0  0  0  0  0  0  0  0  0  0
   -1.6420   -4.0401    0.3411 H   0  0  0  0  0  0  0  0  0  0  0  0
   -0.1908   -4.8608    0.7274 H   0  0  0  0  0  0  0  0  0  0  0  0
   -0.2649   -2.6718    1.6693 S   0  0  0  0  0  0  0  0  0  0  0  0
   -1.3730   -3.1107    2.8934 C   0  0  0  0  0  0  0  0  0  0  0  0
   -2.2783   -3.3637    2.5092 H   0  0  0  0  0  0  0  0  0  0  0  0
   -1.0450   -3.9077    3.4311 H   0  0  0  0  0  0  0  0  0  0  0  0
   -1.5299   -2.3514    3.5501 H   0  0  0  0  0  0  0  0  0  0  0  0
  1  5  1  0
  5  8  1  0
  1  2  1  0
  1  3  1  0
  1  4  1  0
  5  6  1  0
  5  7  1  0
  8  9  1  0
  8 10  1  0
  8 11  1  0
 12 16  1  0
 16 17  1  0
 12 13  1  0
 12 14  1  0
 12 15  1  0
 17 18  1  0
 17 19  1  0
 17 20  1  0
M  CHG  1   8   1
M  END
>  <PDB_ID>  (413) 
pdb1jtg

>  <RESIDUE_NAME>  (413) 
LYS   MET

>  <FRAG_NAME>  (413) 
ETAM   MSM

>  <FRAG_ATOM_NUM>  (413) 
fragi: 11  fragj: 9

>  <atom.prop.CHAIN_ID>  (413) 
A A A A A A A A A A A Z Z Z Z Z Z Z Z Z

>  <atom.prop.IS_HEAVY_ATOM>  (413) 
1 0 0 0 1 0 0 1 0 0 0 1 0 0 0 1 1 0 0 0

>  <DIFUSE_FUNC_ATOM>  (413) 
n/a

>  <FINAL_SINGLE_POINT_ENERGY>  (413) 
0

>  <NONCOV_INTER_ENERGY_QM>  (413) 
0

>  <FF_Energy>  (413) 
7.09

>  <QM_Energy>  (413) 
-4.88

>  <source>  (413) 
ETAM_MSM

>  <Index>  (413) 
2357

$$$$
ETAM-pdb2onu-A-LYS-49:MSM-pdb2onu-A-MET-34
     RDKit          3D

 20 18  0  0  0  0  0  0  0  0999 V2000
    1.2228    0.8801   -0.0000 C   0  0  0  0  0  0  0  0  0  0  0  0
    2.0268    0.3176    0.1893 H   0  0  0  0  0  0  0  0  0  0  0  0
    1.1224    1.5734    0.7119 H   0  0  0  0  0  0  0  0  0  0  0  0
    1.3697    1.3826   -0.9560 H   0  0  0  0  0  0  0  0  0  0  0  0
    0.0000    0.0000    0.0000 C   0  0  0  0  0  0  0  0  0  0  0  0
    0.0172   -0.5830   -0.8162 H   0  0  0  0  0  0  0  0  0  0  0  0
    0.0174   -0.5829    0.8163 H   0  0  0  0  0  0  0  0  0  0  0  0
   -1.2228    0.8098    0.0000 N   0  0  0  0  0  4  0  0  0  0  0  0
   -1.0781    1.6481   -0.5327 H   0  0  0  0  0  0  0  0  0  0  0  0
   -1.9773    0.2900   -0.4076 H   0  0  0  0  0  0  0  0  0  0  0  0
   -1.4687    1.0595    0.9404 H   0  0  0  0  0  0  0  0  0  0  0  0
   -2.6041    3.1012   -4.2271 C   0  0  0  0  0  0  0  0  0  0  0  0
   -2.8068    3.8157   -3.5021 H   0  0  0  0  0  0  0  0  0  0  0  0
   -3.5345    2.6874   -4.4322 H   0  0  0  0  0  0  0  0  0  0  0  0
   -2.2765    3.6292   -5.1226 H   0  0  0  0  0  0  0  0  0  0  0  0
   -1.4687    1.8368   -3.5819 S   0  0  0  0  0  0  0  0  0  0  0  0
   -1.6745    0.5405   -4.7736 C   0  0  0  0  0  0  0  0  0  0  0  0
   -2.4701   -0.0241   -4.5358 H   0  0  0  0  0  0  0  0  0  0  0  0
   -1.8156    0.9316   -5.6875 H   0  0  0  0  0  0  0  0  0  0  0  0
   -0.8571   -0.0426   -4.7933 H   0  0  0  0  0  0  0  0  0  0  0  0
  1  5  1  0
  5  8  1  0
  1  2  1  0
  1  3  1  0
  1  4  1  0
  5  6  1  0
  5  7  1  0
  8  9  1  0
  8 10  1  0
  8 11  1  0
 12 16  1  0
 16 17  1  0
 12 13  1  0
 12 14  1  0
 12 15  1  0
 17 18  1  0
 17 19  1  0
 17 20  1  0
M  CHG  1   8   1
M  END
>  <PDB_ID>  (414) 
pdb2onu

>  <RESIDUE_NAME>  (414) 
LYS   MET

>  <FRAG_NAME>  (414) 
ETAM   MSM

>  <FRAG_ATOM_NUM>  (414) 
fragi: 11  fragj: 9

>  <atom.prop.CHAIN_ID>  (414) 
A A A A A A A A A A A Z Z Z Z Z Z Z Z Z

>  <atom.prop.IS_HEAVY_ATOM>  (414) 
1 0 0 0 1 0 0 1 0 0 0 1 0 0 0 1 1 0 0 0

>  <DIFUSE_FUNC_ATOM>  (414) 
n/a

>  <FINAL_SINGLE_POINT_ENERGY>  (414) 
0

>  <NONCOV_INTER_ENERGY_QM>  (414) 
0

>  <FF_Energy>  (414) 
-5.1

>  <QM_Energy>  (414) 
-11.86

>  <source>  (414) 
ETAM_MSM

>  <Index>  (414) 
2370

$$$$
ETAM-pdb2oqd-B-LYS-115:MSM-pdb2oqd-B-MET-118
     RDKit          3D

 20 18  0  0  0  0  0  0  0  0999 V2000
    1.2097    0.9262   -0.0000 C   0  0  0  0  0  0  0  0  0  0  0  0
    1.2311    1.4256   -0.8454 H   0  0  0  0  0  0  0  0  0  0  0  0
    2.0215    0.3936    0.1434 H   0  0  0  0  0  0  0  0  0  0  0  0
    1.1111    1.6371    0.8205 H   0  0  0  0  0  0  0  0  0  0  0  0
    0.0000    0.0000    0.0000 C   0  0  0  0  0  0  0  0  0  0  0  0
    0.0067   -0.5427   -0.8165 H   0  0  0  0  0  0  0  0  0  0  0  0
    0.0061   -0.5424    0.8167 H   0  0  0  0  0  0  0  0  0  0  0  0
   -1.2097    0.8836   -0.0000 N   0  0  0  0  0  4  0  0  0  0  0  0
   -1.8866    0.5110   -0.6326 H   0  0  0  0  0  0  0  0  0  0  0  0
   -1.5896    0.9165    0.9215 H   0  0  0  0  0  0  0  0  0  0  0  0
   -0.9444    1.8008   -0.2894 H   0  0  0  0  0  0  0  0  0  0  0  0
   -2.0586    3.2934    4.2035 C   0  0  0  0  0  0  0  0  0  0  0  0
   -2.5984    4.1268    4.4383 H   0  0  0  0  0  0  0  0  0  0  0  0
   -1.1490    3.6239    3.8801 H   0  0  0  0  0  0  0  0  0  0  0  0
   -1.9249    2.6871    5.0994 H   0  0  0  0  0  0  0  0  0  0  0  0
   -2.8727    2.3447    2.9422 S   0  0  0  0  0  0  0  0  0  0  0  0
   -3.2485    0.7752    3.7016 C   0  0  0  0  0  0  0  0  0  0  0  0
   -2.4024    0.3357    4.0099 H   0  0  0  0  0  0  0  0  0  0  0  0
   -3.8516    0.9153    4.4897 H   0  0  0  0  0  0  0  0  0  0  0  0
   -3.7061    0.1784    3.0390 H   0  0  0  0  0  0  0  0  0  0  0  0
  1  5  1  0
  5  8  1  0
  1  2  1  0
  1  3  1  0
  1  4  1  0
  5  6  1  0
  5  7  1  0
  8  9  1  0
  8 10  1  0
  8 11  1  0
 12 16  1  0
 16 17  1  0
 12 13  1  0
 12 14  1  0
 12 15  1  0
 17 18  1  0
 17 19  1  0
 17 20  1  0
M  CHG  1   8   1
M  END
>  <PDB_ID>  (415) 
pdb2oqd

>  <RESIDUE_NAME>  (415) 
LYS   MET

>  <FRAG_NAME>  (415) 
ETAM   MSM

>  <FRAG_ATOM_NUM>  (415) 
fragi: 11  fragj: 9

>  <atom.prop.CHAIN_ID>  (415) 
A A A A A A A A A A A Z Z Z Z Z Z Z Z Z

>  <atom.prop.IS_HEAVY_ATOM>  (415) 
1 0 0 0 1 0 0 1 0 0 0 1 0 0 0 1 1 0 0 0

>  <DIFUSE_FUNC_ATOM>  (415) 
n/a

>  <FINAL_SINGLE_POINT_ENERGY>  (415) 
0

>  <NONCOV_INTER_ENERGY_QM>  (415) 
0

>  <FF_Energy>  (415) 
-4.62

>  <QM_Energy>  (415) 
-12.56

>  <source>  (415) 
ETAM_MSM

>  <Index>  (415) 
2389

$$$$
ETAM-pdb2oq2-A-LYS-100:MSM-pdb2oq2-A-MET-70
     RDKit          3D

 20 18  0  0  0  0  0  0  0  0999 V2000
    1.2775    0.8528    0.0000 C   0  0  0  0  0  0  0  0  0  0  0  0
    1.0958    1.6834   -0.5163 H   0  0  0  0  0  0  0  0  0  0  0  0
    2.0019    0.3272   -0.4348 H   0  0  0  0  0  0  0  0  0  0  0  0
    1.5876    1.1211    1.0099 H   0  0  0  0  0  0  0  0  0  0  0  0
    0.0000    0.0000    0.0000 C   0  0  0  0  0  0  0  0  0  0  0  0
    0.0134   -0.5979   -0.8164 H   0  0  0  0  0  0  0  0  0  0  0  0
    0.0132   -0.5985    0.8164 H   0  0  0  0  0  0  0  0  0  0  0  0
   -1.2775    0.7902   -0.0000 N   0  0  0  0  0  4  0  0  0  0  0  0
   -1.5545    0.9606    0.9430 H   0  0  0  0  0  0  0  0  0  0  0  0
   -1.1236    1.6557   -0.4715 H   0  0  0  0  0  0  0  0  0  0  0  0
   -1.9833    0.2669   -0.4717 H   0  0  0  0  0  0  0  0  0  0  0  0
    1.0028    2.6229   -3.3552 C   0  0  0  0  0  0  0  0  0  0  0  0
    0.9875    3.1065   -2.4555 H   0  0  0  0  0  0  0  0  0  0  0  0
    1.1734    3.3418   -4.0605 H   0  0  0  0  0  0  0  0  0  0  0  0
    1.8469    1.9333   -3.3581 H   0  0  0  0  0  0  0  0  0  0  0  0
   -0.5705    1.7825   -3.6611 S   0  0  0  0  0  0  0  0  0  0  0  0
   -1.6987    3.1753   -3.7125 C   0  0  0  0  0  0  0  0  0  0  0  0
   -2.6341    2.8443   -3.8419 H   0  0  0  0  0  0  0  0  0  0  0  0
   -1.6424    3.6842   -2.8527 H   0  0  0  0  0  0  0  0  0  0  0  0
   -1.4517    3.7785   -4.4725 H   0  0  0  0  0  0  0  0  0  0  0  0
  1  5  1  0
  5  8  1  0
  1  2  1  0
  1  3  1  0
  1  4  1  0
  5  6  1  0
  5  7  1  0
  8  9  1  0
  8 10  1  0
  8 11  1  0
 12 16  1  0
 16 17  1  0
 12 13  1  0
 12 14  1  0
 12 15  1  0
 17 18  1  0
 17 19  1  0
 17 20  1  0
M  CHG  1   8   1
M  END
>  <PDB_ID>  (416) 
pdb2oq2

>  <RESIDUE_NAME>  (416) 
LYS   MET

>  <FRAG_NAME>  (416) 
ETAM   MSM

>  <FRAG_ATOM_NUM>  (416) 
fragi: 11  fragj: 9

>  <atom.prop.CHAIN_ID>  (416) 
A A A A A A A A A A A Z Z Z Z Z Z Z Z Z

>  <atom.prop.IS_HEAVY_ATOM>  (416) 
1 0 0 0 1 0 0 1 0 0 0 1 0 0 0 1 1 0 0 0

>  <DIFUSE_FUNC_ATOM>  (416) 
n/a

>  <FINAL_SINGLE_POINT_ENERGY>  (416) 
0

>  <NONCOV_INTER_ENERGY_QM>  (416) 
0

>  <FF_Energy>  (416) 
-4.21

>  <QM_Energy>  (416) 
-10.17

>  <source>  (416) 
ETAM_MSM

>  <Index>  (416) 
2392

$$$$
ETAM-pdb1k3t-D-LYS-89:MSM-pdb1k3t-D-MET-39
     RDKit          3D

 20 18  0  0  0  0  0  0  0  0999 V2000
    1.2757    0.8282    0.0000 C   0  0  0  0  0  0  0  0  0  0  0  0
    2.0553    0.2006    0.0269 H   0  0  0  0  0  0  0  0  0  0  0  0
    1.2800    1.3954    0.8252 H   0  0  0  0  0  0  0  0  0  0  0  0
    1.3596    1.4686   -0.8781 H   0  0  0  0  0  0  0  0  0  0  0  0
    0.0000    0.0000    0.0000 C   0  0  0  0  0  0  0  0  0  0  0  0
    0.0132   -0.6145   -0.8163 H   0  0  0  0  0  0  0  0  0  0  0  0
    0.0136   -0.6147    0.8165 H   0  0  0  0  0  0  0  0  0  0  0  0
   -1.2757    0.7652    0.0000 N   0  0  0  0  0  4  0  0  0  0  0  0
   -1.5193    1.0033   -0.9398 H   0  0  0  0  0  0  0  0  0  0  0  0
   -1.9997    0.2044    0.4014 H   0  0  0  0  0  0  0  0  0  0  0  0
   -1.1621    1.5998    0.5376 H   0  0  0  0  0  0  0  0  0  0  0  0
   -0.8577    1.2731    4.9970 C   0  0  0  0  0  0  0  0  0  0  0  0
    0.0952    1.4505    5.2785 H   0  0  0  0  0  0  0  0  0  0  0  0
   -1.3682    0.9567    5.8084 H   0  0  0  0  0  0  0  0  0  0  0  0
   -1.2974    2.2090    4.6523 H   0  0  0  0  0  0  0  0  0  0  0  0
   -0.9231    0.0449    3.6717 S   0  0  0  0  0  0  0  0  0  0  0  0
    0.7466   -0.5042    3.4638 C   0  0  0  0  0  0  0  0  0  0  0  0
    0.7666   -1.3620    2.9399 H   0  0  0  0  0  0  0  0  0  0  0  0
    1.2798    0.1888    2.9691 H   0  0  0  0  0  0  0  0  0  0  0  0
    1.1731   -0.6619    4.3590 H   0  0  0  0  0  0  0  0  0  0  0  0
  1  5  1  0
  5  8  1  0
  1  2  1  0
  1  3  1  0
  1  4  1  0
  5  6  1  0
  5  7  1  0
  8  9  1  0
  8 10  1  0
  8 11  1  0
 12 16  1  0
 16 17  1  0
 12 13  1  0
 12 14  1  0
 12 15  1  0
 17 18  1  0
 17 19  1  0
 17 20  1  0
M  CHG  1   8   1
M  END
>  <PDB_ID>  (417) 
pdb1k3t

>  <RESIDUE_NAME>  (417) 
LYS   MET

>  <FRAG_NAME>  (417) 
ETAM   MSM

>  <FRAG_ATOM_NUM>  (417) 
fragi: 11  fragj: 9

>  <atom.prop.CHAIN_ID>  (417) 
A A A A A A A A A A A Z Z Z Z Z Z Z Z Z

>  <atom.prop.IS_HEAVY_ATOM>  (417) 
1 0 0 0 1 0 0 1 0 0 0 1 0 0 0 1 1 0 0 0

>  <DIFUSE_FUNC_ATOM>  (417) 
n/a

>  <FINAL_SINGLE_POINT_ENERGY>  (417) 
0

>  <NONCOV_INTER_ENERGY_QM>  (417) 
0

>  <FF_Energy>  (417) 
-4.28

>  <QM_Energy>  (417) 
-10.8

>  <source>  (417) 
ETAM_MSM

>  <Index>  (417) 
2402

$$$$
ETAM-pdb2oqy-A-LYS-280:MSM-pdb2oqy-A-MET-73
     RDKit          3D

 20 18  0  0  0  0  0  0  0  0999 V2000
    1.2471    0.8752   -0.0000 C   0  0  0  0  0  0  0  0  0  0  0  0
    1.1485    1.5650    0.7098 H   0  0  0  0  0  0  0  0  0  0  0  0
    1.3300    1.3064   -0.8924 H   0  0  0  0  0  0  0  0  0  0  0  0
    2.1468    0.2920    0.1962 H   0  0  0  0  0  0  0  0  0  0  0  0
    0.0000    0.0000    0.0000 C   0  0  0  0  0  0  0  0  0  0  0  0
    0.0023   -0.5736   -0.8166 H   0  0  0  0  0  0  0  0  0  0  0  0
    0.0018   -0.5740    0.8165 H   0  0  0  0  0  0  0  0  0  0  0  0
   -1.2471    0.8414    0.0000 N   0  0  0  0  0  4  0  0  0  0  0  0
   -1.9508    0.3771    0.5316 H   0  0  0  0  0  0  0  0  0  0  0  0
   -1.0401    1.7265    0.4086 H   0  0  0  0  0  0  0  0  0  0  0  0
   -1.5557    0.9630   -0.9404 H   0  0  0  0  0  0  0  0  0  0  0  0
   -4.3172   -3.5278    0.2883 C   0  0  0  0  0  0  0  0  0  0  0  0
   -4.3685   -4.2048    1.0526 H   0  0  0  0  0  0  0  0  0  0  0  0
   -4.3003   -4.0780   -0.5736 H   0  0  0  0  0  0  0  0  0  0  0  0
   -5.2248   -2.9241    0.2978 H   0  0  0  0  0  0  0  0  0  0  0  0
   -2.7716   -2.5303    0.4313 S   0  0  0  0  0  0  0  0  0  0  0  0
   -2.5949   -2.5320    2.1044 C   0  0  0  0  0  0  0  0  0  0  0  0
   -3.2186   -1.8670    2.5630 H   0  0  0  0  0  0  0  0  0  0  0  0
   -2.7951   -3.4435    2.5169 H   0  0  0  0  0  0  0  0  0  0  0  0
   -1.6487   -2.2863    2.3973 H   0  0  0  0  0  0  0  0  0  0  0  0
  1  5  1  0
  5  8  1  0
  1  2  1  0
  1  3  1  0
  1  4  1  0
  5  6  1  0
  5  7  1  0
  8  9  1  0
  8 10  1  0
  8 11  1  0
 12 16  1  0
 16 17  1  0
 12 13  1  0
 12 14  1  0
 12 15  1  0
 17 18  1  0
 17 19  1  0
 17 20  1  0
M  CHG  1   8   1
M  END
>  <PDB_ID>  (418) 
pdb2oqy

>  <RESIDUE_NAME>  (418) 
LYS   MET

>  <FRAG_NAME>  (418) 
ETAM   MSM

>  <FRAG_ATOM_NUM>  (418) 
fragi: 11  fragj: 9

>  <atom.prop.CHAIN_ID>  (418) 
A A A A A A A A A A A Z Z Z Z Z Z Z Z Z

>  <atom.prop.IS_HEAVY_ATOM>  (418) 
1 0 0 0 1 0 0 1 0 0 0 1 0 0 0 1 1 0 0 0

>  <DIFUSE_FUNC_ATOM>  (418) 
n/a

>  <FINAL_SINGLE_POINT_ENERGY>  (418) 
0

>  <NONCOV_INTER_ENERGY_QM>  (418) 
0

>  <FF_Energy>  (418) 
-5.1

>  <QM_Energy>  (418) 
-10.62

>  <source>  (418) 
ETAM_MSM

>  <Index>  (418) 
2404

$$$$
ETAM-pdb2oqy-B-LYS-280:MSM-pdb2oqy-B-MET-73
     RDKit          3D

 20 18  0  0  0  0  0  0  0  0999 V2000
    1.2485    0.8782    0.0000 C   0  0  0  0  0  0  0  0  0  0  0  0
    1.1531    1.5643    0.7149 H   0  0  0  0  0  0  0  0  0  0  0  0
    1.3263    1.3162   -0.8902 H   0  0  0  0  0  0  0  0  0  0  0  0
    2.1527    0.2993    0.1882 H   0  0  0  0  0  0  0  0  0  0  0  0
    0.0000    0.0000    0.0000 C   0  0  0  0  0  0  0  0  0  0  0  0
    0.0095   -0.5773   -0.8158 H   0  0  0  0  0  0  0  0  0  0  0  0
    0.0083   -0.5775    0.8167 H   0  0  0  0  0  0  0  0  0  0  0  0
   -1.2485    0.8281    0.0000 N   0  0  0  0  0  4  0  0  0  0  0  0
   -1.5480    0.9677    0.9421 H   0  0  0  0  0  0  0  0  0  0  0  0
   -1.0560    1.7088   -0.4283 H   0  0  0  0  0  0  0  0  0  0  0  0
   -1.9577    0.3499   -0.5140 H   0  0  0  0  0  0  0  0  0  0  0  0
   -4.3305   -3.4901    0.3278 C   0  0  0  0  0  0  0  0  0  0  0  0
   -4.3757   -4.1680    1.0934 H   0  0  0  0  0  0  0  0  0  0  0  0
   -4.3264   -4.0427   -0.5340 H   0  0  0  0  0  0  0  0  0  0  0  0
   -5.2365   -2.8843    0.3480 H   0  0  0  0  0  0  0  0  0  0  0  0
   -2.7886   -2.4990    0.4501 S   0  0  0  0  0  0  0  0  0  0  0  0
   -2.5853   -2.5251    2.1228 C   0  0  0  0  0  0  0  0  0  0  0  0
   -1.9981   -3.3002    2.4311 H   0  0  0  0  0  0  0  0  0  0  0  0
   -2.1467   -1.6743    2.4743 H   0  0  0  0  0  0  0  0  0  0  0  0
   -3.4707   -2.6198    2.6206 H   0  0  0  0  0  0  0  0  0  0  0  0
  1  5  1  0
  5  8  1  0
  1  2  1  0
  1  3  1  0
  1  4  1  0
  5  6  1  0
  5  7  1  0
  8  9  1  0
  8 10  1  0
  8 11  1  0
 12 16  1  0
 16 17  1  0
 12 13  1  0
 12 14  1  0
 12 15  1  0
 17 18  1  0
 17 19  1  0
 17 20  1  0
M  CHG  1   8   1
M  END
>  <PDB_ID>  (419) 
pdb2oqy

>  <RESIDUE_NAME>  (419) 
LYS   MET

>  <FRAG_NAME>  (419) 
ETAM   MSM

>  <FRAG_ATOM_NUM>  (419) 
fragi: 11  fragj: 9

>  <atom.prop.CHAIN_ID>  (419) 
A A A A A A A A A A A Z Z Z Z Z Z Z Z Z

>  <atom.prop.IS_HEAVY_ATOM>  (419) 
1 0 0 0 1 0 0 1 0 0 0 1 0 0 0 1 1 0 0 0

>  <DIFUSE_FUNC_ATOM>  (419) 
n/a

>  <FINAL_SINGLE_POINT_ENERGY>  (419) 
0

>  <NONCOV_INTER_ENERGY_QM>  (419) 
0

>  <FF_Energy>  (419) 
-5.0

>  <QM_Energy>  (419) 
-10.67

>  <source>  (419) 
ETAM_MSM

>  <Index>  (419) 
2406

$$$$
ETAM-pdb2oqy-C-LYS-280:MSM-pdb2oqy-C-MET-73
     RDKit          3D

 20 18  0  0  0  0  0  0  0  0999 V2000
    1.2480    0.8782    0.0000 C   0  0  0  0  0  0  0  0  0  0  0  0
    1.1571    1.5544    0.7255 H   0  0  0  0  0  0  0  0  0  0  0  0
    1.3158    1.3283   -0.8847 H   0  0  0  0  0  0  0  0  0  0  0  0
    2.1527    0.2950    0.1717 H   0  0  0  0  0  0  0  0  0  0  0  0
    0.0000    0.0000    0.0000 C   0  0  0  0  0  0  0  0  0  0  0  0
    0.0060   -0.5750   -0.8159 H   0  0  0  0  0  0  0  0  0  0  0  0
    0.0065   -0.5753    0.8166 H   0  0  0  0  0  0  0  0  0  0  0  0
   -1.2480    0.8349    0.0000 N   0  0  0  0  0  4  0  0  0  0  0  0
   -2.0012    0.2935   -0.3670 H   0  0  0  0  0  0  0  0  0  0  0  0
   -1.4531    1.1125    0.9360 H   0  0  0  0  0  0  0  0  0  0  0  0
   -1.0999    1.6402   -0.5696 H   0  0  0  0  0  0  0  0  0  0  0  0
   -4.3182   -3.5046    0.3402 C   0  0  0  0  0  0  0  0  0  0  0  0
   -4.3503   -4.1930    1.0944 H   0  0  0  0  0  0  0  0  0  0  0  0
   -4.3147   -4.0397   -0.5303 H   0  0  0  0  0  0  0  0  0  0  0  0
   -5.2260   -2.9024    0.3775 H   0  0  0  0  0  0  0  0  0  0  0  0
   -2.7542   -2.5055    0.4686 S   0  0  0  0  0  0  0  0  0  0  0  0
   -2.5761   -2.5096    2.1311 C   0  0  0  0  0  0  0  0  0  0  0  0
   -3.4630   -2.6385    2.6234 H   0  0  0  0  0  0  0  0  0  0  0  0
   -1.9584   -3.2555    2.4609 H   0  0  0  0  0  0  0  0  0  0  0  0
   -2.1803   -1.6368    2.4882 H   0  0  0  0  0  0  0  0  0  0  0  0
  1  5  1  0
  5  8  1  0
  1  2  1  0
  1  3  1  0
  1  4  1  0
  5  6  1  0
  5  7  1  0
  8  9  1  0
  8 10  1  0
  8 11  1  0
 12 16  1  0
 16 17  1  0
 12 13  1  0
 12 14  1  0
 12 15  1  0
 17 18  1  0
 17 19  1  0
 17 20  1  0
M  CHG  1   8   1
M  END
>  <PDB_ID>  (420) 
pdb2oqy

>  <RESIDUE_NAME>  (420) 
LYS   MET

>  <FRAG_NAME>  (420) 
ETAM   MSM

>  <FRAG_ATOM_NUM>  (420) 
fragi: 11  fragj: 9

>  <atom.prop.CHAIN_ID>  (420) 
A A A A A A A A A A A Z Z Z Z Z Z Z Z Z

>  <atom.prop.IS_HEAVY_ATOM>  (420) 
1 0 0 0 1 0 0 1 0 0 0 1 0 0 0 1 1 0 0 0

>  <DIFUSE_FUNC_ATOM>  (420) 
n/a

>  <FINAL_SINGLE_POINT_ENERGY>  (420) 
0

>  <NONCOV_INTER_ENERGY_QM>  (420) 
0

>  <FF_Energy>  (420) 
-5.07

>  <QM_Energy>  (420) 
-11.13

>  <source>  (420) 
ETAM_MSM

>  <Index>  (420) 
2407

$$$$
ETAM-pdb2oqy-D-LYS-280:MSM-pdb2oqy-D-MET-73
     RDKit          3D

 20 18  0  0  0  0  0  0  0  0999 V2000
    1.2446    0.8754    0.0000 C   0  0  0  0  0  0  0  0  0  0  0  0
    1.1452    1.5681    0.7075 H   0  0  0  0  0  0  0  0  0  0  0  0
    1.3315    1.3032   -0.8935 H   0  0  0  0  0  0  0  0  0  0  0  0
    2.1435    0.2929    0.2018 H   0  0  0  0  0  0  0  0  0  0  0  0
    0.0000    0.0000    0.0000 C   0  0  0  0  0  0  0  0  0  0  0  0
    0.0043   -0.5749   -0.8159 H   0  0  0  0  0  0  0  0  0  0  0  0
    0.0041   -0.5752    0.8158 H   0  0  0  0  0  0  0  0  0  0  0  0
   -1.2446    0.8373    0.0000 N   0  0  0  0  0  4  0  0  0  0  0  0
   -1.2306    1.4413    0.7942 H   0  0  0  0  0  0  0  0  0  0  0  0
   -1.2730    1.3785   -0.8371 H   0  0  0  0  0  0  0  0  0  0  0  0
   -2.0408    0.2376    0.0435 H   0  0  0  0  0  0  0  0  0  0  0  0
   -4.3154   -3.5204    0.3707 C   0  0  0  0  0  0  0  0  0  0  0  0
   -4.3693   -4.1875    1.1416 H   0  0  0  0  0  0  0  0  0  0  0  0
   -4.3046   -4.0751   -0.4860 H   0  0  0  0  0  0  0  0  0  0  0  0
   -5.2247   -2.9193    0.3770 H   0  0  0  0  0  0  0  0  0  0  0  0
   -2.7962   -2.5103    0.5005 S   0  0  0  0  0  0  0  0  0  0  0  0
   -2.6012   -2.4949    2.1536 C   0  0  0  0  0  0  0  0  0  0  0  0
   -3.1601   -1.7715    2.6143 H   0  0  0  0  0  0  0  0  0  0  0  0
   -2.8696   -3.3789    2.5950 H   0  0  0  0  0  0  0  0  0  0  0  0
   -1.6327   -2.3237    2.4399 H   0  0  0  0  0  0  0  0  0  0  0  0
  1  5  1  0
  5  8  1  0
  1  2  1  0
  1  3  1  0
  1  4  1  0
  5  6  1  0
  5  7  1  0
  8  9  1  0
  8 10  1  0
  8 11  1  0
 12 16  1  0
 16 17  1  0
 12 13  1  0
 12 14  1  0
 12 15  1  0
 17 18  1  0
 17 19  1  0
 17 20  1  0
M  CHG  1   8   1
M  END
>  <PDB_ID>  (421) 
pdb2oqy

>  <RESIDUE_NAME>  (421) 
LYS   MET

>  <FRAG_NAME>  (421) 
ETAM   MSM

>  <FRAG_ATOM_NUM>  (421) 
fragi: 11  fragj: 9

>  <atom.prop.CHAIN_ID>  (421) 
A A A A A A A A A A A Z Z Z Z Z Z Z Z Z

>  <atom.prop.IS_HEAVY_ATOM>  (421) 
1 0 0 0 1 0 0 1 0 0 0 1 0 0 0 1 1 0 0 0

>  <DIFUSE_FUNC_ATOM>  (421) 
n/a

>  <FINAL_SINGLE_POINT_ENERGY>  (421) 
0

>  <NONCOV_INTER_ENERGY_QM>  (421) 
0

>  <FF_Energy>  (421) 
-5.24

>  <QM_Energy>  (421) 
-11.67

>  <source>  (421) 
ETAM_MSM

>  <Index>  (421) 
2408

$$$$
ETAM-pdb2oqy-E-LYS-280:MSM-pdb2oqy-E-MET-73
     RDKit          3D

 20 18  0  0  0  0  0  0  0  0999 V2000
    1.2495    0.8673    0.0000 C   0  0  0  0  0  0  0  0  0  0  0  0
    1.1637    1.5496    0.7196 H   0  0  0  0  0  0  0  0  0  0  0  0
    1.3281    1.3116   -0.8872 H   0  0  0  0  0  0  0  0  0  0  0  0
    2.1508    0.2814    0.1799 H   0  0  0  0  0  0  0  0  0  0  0  0
    0.0000    0.0000    0.0000 C   0  0  0  0  0  0  0  0  0  0  0  0
    0.0024   -0.5784   -0.8161 H   0  0  0  0  0  0  0  0  0  0  0  0
    0.0022   -0.5796    0.8164 H   0  0  0  0  0  0  0  0  0  0  0  0
   -1.2495    0.8340   -0.0000 N   0  0  0  0  0  4  0  0  0  0  0  0
   -1.1796    1.5237    0.7168 H   0  0  0  0  0  0  0  0  0  0  0  0
   -1.3448    1.2764   -0.8885 H   0  0  0  0  0  0  0  0  0  0  0  0
   -2.0344    0.2432    0.1715 H   0  0  0  0  0  0  0  0  0  0  0  0
   -4.3441   -3.4879    0.2556 C   0  0  0  0  0  0  0  0  0  0  0  0
   -4.3974   -4.1792    1.0052 H   0  0  0  0  0  0  0  0  0  0  0  0
   -4.3447   -4.0147   -0.6183 H   0  0  0  0  0  0  0  0  0  0  0  0
   -5.2469   -2.8780    0.2893 H   0  0  0  0  0  0  0  0  0  0  0  0
   -2.8062   -2.4990    0.4047 S   0  0  0  0  0  0  0  0  0  0  0  0
   -2.6257   -2.5244    2.0752 C   0  0  0  0  0  0  0  0  0  0  0  0
   -3.3740   -2.0245    2.5574 H   0  0  0  0  0  0  0  0  0  0  0  0
   -2.6251   -3.4725    2.4548 H   0  0  0  0  0  0  0  0  0  0  0  0
   -1.7517   -2.0945    2.3806 H   0  0  0  0  0  0  0  0  0  0  0  0
  1  5  1  0
  5  8  1  0
  1  2  1  0
  1  3  1  0
  1  4  1  0
  5  6  1  0
  5  7  1  0
  8  9  1  0
  8 10  1  0
  8 11  1  0
 12 16  1  0
 16 17  1  0
 12 13  1  0
 12 14  1  0
 12 15  1  0
 17 18  1  0
 17 19  1  0
 17 20  1  0
M  CHG  1   8   1
M  END
>  <PDB_ID>  (422) 
pdb2oqy

>  <RESIDUE_NAME>  (422) 
LYS   MET

>  <FRAG_NAME>  (422) 
ETAM   MSM

>  <FRAG_ATOM_NUM>  (422) 
fragi: 11  fragj: 9

>  <atom.prop.CHAIN_ID>  (422) 
A A A A A A A A A A A Z Z Z Z Z Z Z Z Z

>  <atom.prop.IS_HEAVY_ATOM>  (422) 
1 0 0 0 1 0 0 1 0 0 0 1 0 0 0 1 1 0 0 0

>  <DIFUSE_FUNC_ATOM>  (422) 
n/a

>  <FINAL_SINGLE_POINT_ENERGY>  (422) 
0

>  <NONCOV_INTER_ENERGY_QM>  (422) 
0

>  <FF_Energy>  (422) 
-5.25

>  <QM_Energy>  (422) 
-11.82

>  <source>  (422) 
ETAM_MSM

>  <Index>  (422) 
2409

$$$$
ETAM-pdb2oqy-F-LYS-280:MSM-pdb2oqy-F-MET-73
     RDKit          3D

 20 18  0  0  0  0  0  0  0  0999 V2000
    1.2473    0.8701   -0.0000 C   0  0  0  0  0  0  0  0  0  0  0  0
    1.1624    1.5494    0.7224 H   0  0  0  0  0  0  0  0  0  0  0  0
    1.3251    1.3160   -0.8862 H   0  0  0  0  0  0  0  0  0  0  0  0
    2.1493    0.2842    0.1768 H   0  0  0  0  0  0  0  0  0  0  0  0
    0.0000    0.0000    0.0000 C   0  0  0  0  0  0  0  0  0  0  0  0
   -0.0003   -0.5744   -0.8168 H   0  0  0  0  0  0  0  0  0  0  0  0
   -0.0012   -0.5750    0.8167 H   0  0  0  0  0  0  0  0  0  0  0  0
   -1.2473    0.8444    0.0000 N   0  0  0  0  0  4  0  0  0  0  0  0
   -1.3563    1.2592    0.8994 H   0  0  0  0  0  0  0  0  0  0  0  0
   -1.1571    1.5534   -0.6945 H   0  0  0  0  0  0  0  0  0  0  0  0
   -2.0305    0.2628   -0.2057 H   0  0  0  0  0  0  0  0  0  0  0  0
   -4.3525   -3.4939    0.3481 C   0  0  0  0  0  0  0  0  0  0  0  0
   -4.4040   -4.1778    1.1127 H   0  0  0  0  0  0  0  0  0  0  0  0
   -4.3680   -4.0507   -0.5147 H   0  0  0  0  0  0  0  0  0  0  0  0
   -5.2552   -2.8835    0.3760 H   0  0  0  0  0  0  0  0  0  0  0  0
   -2.8002   -2.5320    0.4580 S   0  0  0  0  0  0  0  0  0  0  0  0
   -2.5992   -2.5029    2.1487 C   0  0  0  0  0  0  0  0  0  0  0  0
   -2.2962   -1.5908    2.4801 H   0  0  0  0  0  0  0  0  0  0  0  0
   -3.4627   -2.7233    2.6377 H   0  0  0  0  0  0  0  0  0  0  0  0
   -1.9042   -3.1759    2.4604 H   0  0  0  0  0  0  0  0  0  0  0  0
  1  5  1  0
  5  8  1  0
  1  2  1  0
  1  3  1  0
  1  4  1  0
  5  6  1  0
  5  7  1  0
  8  9  1  0
  8 10  1  0
  8 11  1  0
 12 16  1  0
 16 17  1  0
 12 13  1  0
 12 14  1  0
 12 15  1  0
 17 18  1  0
 17 19  1  0
 17 20  1  0
M  CHG  1   8   1
M  END
>  <PDB_ID>  (423) 
pdb2oqy

>  <RESIDUE_NAME>  (423) 
LYS   MET

>  <FRAG_NAME>  (423) 
ETAM   MSM

>  <FRAG_ATOM_NUM>  (423) 
fragi: 11  fragj: 9

>  <atom.prop.CHAIN_ID>  (423) 
A A A A A A A A A A A Z Z Z Z Z Z Z Z Z

>  <atom.prop.IS_HEAVY_ATOM>  (423) 
1 0 0 0 1 0 0 1 0 0 0 1 0 0 0 1 1 0 0 0

>  <DIFUSE_FUNC_ATOM>  (423) 
n/a

>  <FINAL_SINGLE_POINT_ENERGY>  (423) 
0

>  <NONCOV_INTER_ENERGY_QM>  (423) 
0

>  <FF_Energy>  (423) 
-5.0

>  <QM_Energy>  (423) 
-11.2

>  <source>  (423) 
ETAM_MSM

>  <Index>  (423) 
2410

$$$$
ETAM-pdb2oqy-G-LYS-280:MSM-pdb2oqy-G-MET-73
     RDKit          3D

 20 18  0  0  0  0  0  0  0  0999 V2000
    1.2452    0.8800    0.0000 C   0  0  0  0  0  0  0  0  0  0  0  0
    1.1424    1.5704    0.7104 H   0  0  0  0  0  0  0  0  0  0  0  0
    1.3239    1.3146   -0.8926 H   0  0  0  0  0  0  0  0  0  0  0  0
    2.1490    0.3027    0.1950 H   0  0  0  0  0  0  0  0  0  0  0  0
    0.0000    0.0000    0.0000 C   0  0  0  0  0  0  0  0  0  0  0  0
    0.0058   -0.5728   -0.8164 H   0  0  0  0  0  0  0  0  0  0  0  0
    0.0051   -0.5733    0.8166 H   0  0  0  0  0  0  0  0  0  0  0  0
   -1.2452    0.8388   -0.0000 N   0  0  0  0  0  4  0  0  0  0  0  0
   -1.0479    1.7127   -0.4375 H   0  0  0  0  0  0  0  0  0  0  0  0
   -1.9597    0.3597   -0.5043 H   0  0  0  0  0  0  0  0  0  0  0  0
   -1.5370    0.9883    0.9424 H   0  0  0  0  0  0  0  0  0  0  0  0
   -4.2962   -3.5269    0.3426 C   0  0  0  0  0  0  0  0  0  0  0  0
   -4.3391   -4.2053    1.1102 H   0  0  0  0  0  0  0  0  0  0  0  0
   -4.2815   -4.0848   -0.5168 H   0  0  0  0  0  0  0  0  0  0  0  0
   -5.2089   -2.9310    0.3555 H   0  0  0  0  0  0  0  0  0  0  0  0
   -2.7529   -2.5265    0.4703 S   0  0  0  0  0  0  0  0  0  0  0  0
   -2.5757   -2.5205    2.1477 C   0  0  0  0  0  0  0  0  0  0  0  0
   -2.3196   -1.6017    2.5077 H   0  0  0  0  0  0  0  0  0  0  0  0
   -3.4332   -2.7898    2.6299 H   0  0  0  0  0  0  0  0  0  0  0  0
   -1.8525   -3.1662    2.4642 H   0  0  0  0  0  0  0  0  0  0  0  0
  1  5  1  0
  5  8  1  0
  1  2  1  0
  1  3  1  0
  1  4  1  0
  5  6  1  0
  5  7  1  0
  8  9  1  0
  8 10  1  0
  8 11  1  0
 12 16  1  0
 16 17  1  0
 12 13  1  0
 12 14  1  0
 12 15  1  0
 17 18  1  0
 17 19  1  0
 17 20  1  0
M  CHG  1   8   1
M  END
>  <PDB_ID>  (424) 
pdb2oqy

>  <RESIDUE_NAME>  (424) 
LYS   MET

>  <FRAG_NAME>  (424) 
ETAM   MSM

>  <FRAG_ATOM_NUM>  (424) 
fragi: 11  fragj: 9

>  <atom.prop.CHAIN_ID>  (424) 
A A A A A A A A A A A Z Z Z Z Z Z Z Z Z

>  <atom.prop.IS_HEAVY_ATOM>  (424) 
1 0 0 0 1 0 0 1 0 0 0 1 0 0 0 1 1 0 0 0

>  <DIFUSE_FUNC_ATOM>  (424) 
n/a

>  <FINAL_SINGLE_POINT_ENERGY>  (424) 
0

>  <NONCOV_INTER_ENERGY_QM>  (424) 
0

>  <FF_Energy>  (424) 
-4.97

>  <QM_Energy>  (424) 
-10.51

>  <source>  (424) 
ETAM_MSM

>  <Index>  (424) 
2411

$$$$
ETAM-pdb2oqy-H-LYS-280:MSM-pdb2oqy-H-MET-73
     RDKit          3D

 20 18  0  0  0  0  0  0  0  0999 V2000
    1.2420    0.8795    0.0000 C   0  0  0  0  0  0  0  0  0  0  0  0
    1.1423    1.5684    0.7114 H   0  0  0  0  0  0  0  0  0  0  0  0
    1.3209    1.3152   -0.8912 H   0  0  0  0  0  0  0  0  0  0  0  0
    2.1457    0.3012    0.1930 H   0  0  0  0  0  0  0  0  0  0  0  0
    0.0000    0.0000    0.0000 C   0  0  0  0  0  0  0  0  0  0  0  0
    0.0056   -0.5733   -0.8163 H   0  0  0  0  0  0  0  0  0  0  0  0
    0.0053   -0.5736    0.8160 H   0  0  0  0  0  0  0  0  0  0  0  0
   -1.2420    0.8390   -0.0000 N   0  0  0  0  0  4  0  0  0  0  0  0
   -1.9018    0.4448   -0.6364 H   0  0  0  0  0  0  0  0  0  0  0  0
   -1.6256    0.8541    0.9211 H   0  0  0  0  0  0  0  0  0  0  0  0
   -1.0095    1.7669   -0.2855 H   0  0  0  0  0  0  0  0  0  0  0  0
   -4.3009   -3.5340    0.4383 C   0  0  0  0  0  0  0  0  0  0  0  0
   -4.3465   -4.1991    1.2194 H   0  0  0  0  0  0  0  0  0  0  0  0
   -4.2973   -4.1121   -0.4102 H   0  0  0  0  0  0  0  0  0  0  0  0
   -5.2134   -2.9376    0.4431 H   0  0  0  0  0  0  0  0  0  0  0  0
   -2.7578   -2.5434    0.5374 S   0  0  0  0  0  0  0  0  0  0  0  0
   -2.5806   -2.4769    2.2114 C   0  0  0  0  0  0  0  0  0  0  0  0
   -1.7459   -1.9632    2.4947 H   0  0  0  0  0  0  0  0  0  0  0  0
   -3.3690   -2.0182    2.6685 H   0  0  0  0  0  0  0  0  0  0  0  0
   -2.5042   -3.4029    2.6319 H   0  0  0  0  0  0  0  0  0  0  0  0
  1  5  1  0
  5  8  1  0
  1  2  1  0
  1  3  1  0
  1  4  1  0
  5  6  1  0
  5  7  1  0
  8  9  1  0
  8 10  1  0
  8 11  1  0
 12 16  1  0
 16 17  1  0
 12 13  1  0
 12 14  1  0
 12 15  1  0
 17 18  1  0
 17 19  1  0
 17 20  1  0
M  CHG  1   8   1
M  END
>  <PDB_ID>  (425) 
pdb2oqy

>  <RESIDUE_NAME>  (425) 
LYS   MET

>  <FRAG_NAME>  (425) 
ETAM   MSM

>  <FRAG_ATOM_NUM>  (425) 
fragi: 11  fragj: 9

>  <atom.prop.CHAIN_ID>  (425) 
A A A A A A A A A A A Z Z Z Z Z Z Z Z Z

>  <atom.prop.IS_HEAVY_ATOM>  (425) 
1 0 0 0 1 0 0 1 0 0 0 1 0 0 0 1 1 0 0 0

>  <DIFUSE_FUNC_ATOM>  (425) 
n/a

>  <FINAL_SINGLE_POINT_ENERGY>  (425) 
0

>  <NONCOV_INTER_ENERGY_QM>  (425) 
0

>  <FF_Energy>  (425) 
-4.91

>  <QM_Energy>  (425) 
-10.01

>  <source>  (425) 
ETAM_MSM

>  <Index>  (425) 
2412

$$$$
ETAM-pdb2oqy-A-LYS-190:MSM-pdb2oqy-A-MET-219
     RDKit          3D

 20 18  0  0  0  0  0  0  0  0999 V2000
    1.2488    0.8629    0.0000 C   0  0  0  0  0  0  0  0  0  0  0  0
    1.3417    1.2914    0.8905 H   0  0  0  0  0  0  0  0  0  0  0  0
    1.1634    1.5482   -0.7124 H   0  0  0  0  0  0  0  0  0  0  0  0
    2.1372    0.2619   -0.1943 H   0  0  0  0  0  0  0  0  0  0  0  0
    0.0000    0.0000    0.0000 C   0  0  0  0  0  0  0  0  0  0  0  0
    0.0129   -0.5903   -0.8166 H   0  0  0  0  0  0  0  0  0  0  0  0
    0.0124   -0.5908    0.8164 H   0  0  0  0  0  0  0  0  0  0  0  0
   -1.2488    0.8033   -0.0000 N   0  0  0  0  0  4  0  0  0  0  0  0
   -1.0500    1.7282   -0.3249 H   0  0  0  0  0  0  0  0  0  0  0  0
   -1.9212    0.3745   -0.6047 H   0  0  0  0  0  0  0  0  0  0  0  0
   -1.6166    0.8475    0.9294 H   0  0  0  0  0  0  0  0  0  0  0  0
   -0.0706    4.2774    2.7681 C   0  0  0  0  0  0  0  0  0  0  0  0
    0.7836    3.8170    2.4201 H   0  0  0  0  0  0  0  0  0  0  0  0
   -0.2947    3.7880    3.6473 H   0  0  0  0  0  0  0  0  0  0  0  0
    0.1722    5.3133    3.0048 H   0  0  0  0  0  0  0  0  0  0  0  0
   -1.4525    4.0408    1.5489 S   0  0  0  0  0  0  0  0  0  0  0  0
   -0.5747    4.4968    0.0464 C   0  0  0  0  0  0  0  0  0  0  0  0
    0.0620    5.2414    0.2473 H   0  0  0  0  0  0  0  0  0  0  0  0
   -0.0673    3.7063   -0.2947 H   0  0  0  0  0  0  0  0  0  0  0  0
   -1.2323    4.7963   -0.6443 H   0  0  0  0  0  0  0  0  0  0  0  0
  1  5  1  0
  5  8  1  0
  1  2  1  0
  1  3  1  0
  1  4  1  0
  5  6  1  0
  5  7  1  0
  8  9  1  0
  8 10  1  0
  8 11  1  0
 12 16  1  0
 16 17  1  0
 12 13  1  0
 12 14  1  0
 12 15  1  0
 17 18  1  0
 17 19  1  0
 17 20  1  0
M  CHG  1   8   1
M  END
>  <PDB_ID>  (426) 
pdb2oqy

>  <RESIDUE_NAME>  (426) 
LYS   MET

>  <FRAG_NAME>  (426) 
ETAM   MSM

>  <FRAG_ATOM_NUM>  (426) 
fragi: 11  fragj: 9

>  <atom.prop.CHAIN_ID>  (426) 
A A A A A A A A A A A Z Z Z Z Z Z Z Z Z

>  <atom.prop.IS_HEAVY_ATOM>  (426) 
1 0 0 0 1 0 0 1 0 0 0 1 0 0 0 1 1 0 0 0

>  <DIFUSE_FUNC_ATOM>  (426) 
n/a

>  <FINAL_SINGLE_POINT_ENERGY>  (426) 
0

>  <NONCOV_INTER_ENERGY_QM>  (426) 
0

>  <FF_Energy>  (426) 
-4.14

>  <QM_Energy>  (426) 
-9.78

>  <source>  (426) 
ETAM_MSM

>  <Index>  (426) 
2417

$$$$
ETAM-pdb1k6c-B-LYS-20:MSM-pdb1k6c-B-MET-36
     RDKit          3D

 20 18  0  0  0  0  0  0  0  0999 V2000
    1.2504    0.8660    0.0000 C   0  0  0  0  0  0  0  0  0  0  0  0
    2.0450    0.2709    0.0848 H   0  0  0  0  0  0  0  0  0  0  0  0
    1.2020    1.4872    0.7769 H   0  0  0  0  0  0  0  0  0  0  0  0
    1.3346    1.4464   -0.9188 H   0  0  0  0  0  0  0  0  0  0  0  0
    0.0000    0.0000    0.0000 C   0  0  0  0  0  0  0  0  0  0  0  0
    0.0073   -0.5839   -0.8157 H   0  0  0  0  0  0  0  0  0  0  0  0
    0.0067   -0.5843    0.8167 H   0  0  0  0  0  0  0  0  0  0  0  0
   -1.2504    0.8209    0.0000 N   0  0  0  0  0  4  0  0  0  0  0  0
   -1.3115    1.3253    0.8596 H   0  0  0  0  0  0  0  0  0  0  0  0
   -1.2225    1.4616   -0.7655 H   0  0  0  0  0  0  0  0  0  0  0  0
   -2.0397    0.2165   -0.0946 H   0  0  0  0  0  0  0  0  0  0  0  0
   -1.1483   -3.0199    3.2992 C   0  0  0  0  0  0  0  0  0  0  0  0
   -1.0281   -2.7331    4.2739 H   0  0  0  0  0  0  0  0  0  0  0  0
   -1.0773   -4.0411    3.2984 H   0  0  0  0  0  0  0  0  0  0  0  0
   -2.1549   -2.7455    2.9837 H   0  0  0  0  0  0  0  0  0  0  0  0
    0.1223   -2.2873    2.2512 S   0  0  0  0  0  0  0  0  0  0  0  0
    0.1096   -3.4905    0.8569 C   0  0  0  0  0  0  0  0  0  0  0  0
    1.0205   -3.8772    0.7722 H   0  0  0  0  0  0  0  0  0  0  0  0
   -0.5545   -4.1991    1.0639 H   0  0  0  0  0  0  0  0  0  0  0  0
   -0.1430   -3.0038    0.0292 H   0  0  0  0  0  0  0  0  0  0  0  0
  1  5  1  0
  5  8  1  0
  1  2  1  0
  1  3  1  0
  1  4  1  0
  5  6  1  0
  5  7  1  0
  8  9  1  0
  8 10  1  0
  8 11  1  0
 12 16  1  0
 16 17  1  0
 12 13  1  0
 12 14  1  0
 12 15  1  0
 17 18  1  0
 17 19  1  0
 17 20  1  0
M  CHG  1   8   1
M  END
>  <PDB_ID>  (427) 
pdb1k6c

>  <RESIDUE_NAME>  (427) 
LYS   MET

>  <FRAG_NAME>  (427) 
ETAM   MSM

>  <FRAG_ATOM_NUM>  (427) 
fragi: 11  fragj: 9

>  <atom.prop.CHAIN_ID>  (427) 
A A A A A A A A A A A Z Z Z Z Z Z Z Z Z

>  <atom.prop.IS_HEAVY_ATOM>  (427) 
1 0 0 0 1 0 0 1 0 0 0 1 0 0 0 1 1 0 0 0

>  <DIFUSE_FUNC_ATOM>  (427) 
n/a

>  <FINAL_SINGLE_POINT_ENERGY>  (427) 
0

>  <NONCOV_INTER_ENERGY_QM>  (427) 
0

>  <FF_Energy>  (427) 
9.98

>  <QM_Energy>  (427) 
-5.06

>  <source>  (427) 
ETAM_MSM

>  <Index>  (427) 
2423

$$$$
ETAM-pdb2oqy-B-LYS-190:MSM-pdb2oqy-B-MET-219
     RDKit          3D

 20 18  0  0  0  0  0  0  0  0999 V2000
    1.2507    0.8674    0.0000 C   0  0  0  0  0  0  0  0  0  0  0  0
    1.3322    1.3071    0.8861 H   0  0  0  0  0  0  0  0  0  0  0  0
    1.1667    1.5449   -0.7209 H   0  0  0  0  0  0  0  0  0  0  0  0
    2.1438    0.2689   -0.1796 H   0  0  0  0  0  0  0  0  0  0  0  0
    0.0000    0.0000    0.0000 C   0  0  0  0  0  0  0  0  0  0  0  0
    0.0117   -0.5866   -0.8167 H   0  0  0  0  0  0  0  0  0  0  0  0
    0.0114   -0.5873    0.8167 H   0  0  0  0  0  0  0  0  0  0  0  0
   -1.2507    0.8101   -0.0000 N   0  0  0  0  0  4  0  0  0  0  0  0
   -1.8826    0.4424   -0.6812 H   0  0  0  0  0  0  0  0  0  0  0  0
   -1.6721    0.7688    0.9057 H   0  0  0  0  0  0  0  0  0  0  0  0
   -1.0303    1.7587   -0.2242 H   0  0  0  0  0  0  0  0  0  0  0  0
   -0.1113    4.2791    2.8013 C   0  0  0  0  0  0  0  0  0  0  0  0
    0.7527    3.8269    2.4558 H   0  0  0  0  0  0  0  0  0  0  0  0
   -0.3194    3.7856    3.6865 H   0  0  0  0  0  0  0  0  0  0  0  0
    0.1287    5.3142    3.0442 H   0  0  0  0  0  0  0  0  0  0  0  0
   -1.4760    4.0448    1.6047 S   0  0  0  0  0  0  0  0  0  0  0  0
   -0.5949    4.4712    0.0797 C   0  0  0  0  0  0  0  0  0  0  0  0
   -1.1296    5.1426   -0.4279 H   0  0  0  0  0  0  0  0  0  0  0  0
    0.2962    4.8539    0.3143 H   0  0  0  0  0  0  0  0  0  0  0  0
   -0.4763    3.6461   -0.4691 H   0  0  0  0  0  0  0  0  0  0  0  0
  1  5  1  0
  5  8  1  0
  1  2  1  0
  1  3  1  0
  1  4  1  0
  5  6  1  0
  5  7  1  0
  8  9  1  0
  8 10  1  0
  8 11  1  0
 12 16  1  0
 16 17  1  0
 12 13  1  0
 12 14  1  0
 12 15  1  0
 17 18  1  0
 17 19  1  0
 17 20  1  0
M  CHG  1   8   1
M  END
>  <PDB_ID>  (428) 
pdb2oqy

>  <RESIDUE_NAME>  (428) 
LYS   MET

>  <FRAG_NAME>  (428) 
ETAM   MSM

>  <FRAG_ATOM_NUM>  (428) 
fragi: 11  fragj: 9

>  <atom.prop.CHAIN_ID>  (428) 
A A A A A A A A A A A Z Z Z Z Z Z Z Z Z

>  <atom.prop.IS_HEAVY_ATOM>  (428) 
1 0 0 0 1 0 0 1 0 0 0 1 0 0 0 1 1 0 0 0

>  <DIFUSE_FUNC_ATOM>  (428) 
n/a

>  <FINAL_SINGLE_POINT_ENERGY>  (428) 
0

>  <NONCOV_INTER_ENERGY_QM>  (428) 
0

>  <FF_Energy>  (428) 
-3.81

>  <QM_Energy>  (428) 
-9.13

>  <source>  (428) 
ETAM_MSM

>  <Index>  (428) 
2428

$$$$
ETAM-pdb1k7h-B-LYS-292:MSM-pdb1k7h-B-MET-343
     RDKit          3D

 20 18  0  0  0  0  0  0  0  0999 V2000
    1.2563    0.8578    0.0000 C   0  0  0  0  0  0  0  0  0  0  0  0
    1.9570    0.3982    0.5287 H   0  0  0  0  0  0  0  0  0  0  0  0
    1.0389    1.7425    0.3887 H   0  0  0  0  0  0  0  0  0  0  0  0
    1.6242    1.0024   -1.0158 H   0  0  0  0  0  0  0  0  0  0  0  0
    0.0000    0.0000    0.0000 C   0  0  0  0  0  0  0  0  0  0  0  0
    0.0430   -0.6185   -0.8161 H   0  0  0  0  0  0  0  0  0  0  0  0
    0.0425   -0.6179    0.8167 H   0  0  0  0  0  0  0  0  0  0  0  0
   -1.2563    0.7229    0.0000 N   0  0  0  0  0  4  0  0  0  0  0  0
   -1.3946    1.1867    0.8829 H   0  0  0  0  0  0  0  0  0  0  0  0
   -1.2623    1.4161   -0.7293 H   0  0  0  0  0  0  0  0  0  0  0  0
   -2.0247    0.0910   -0.1528 H   0  0  0  0  0  0  0  0  0  0  0  0
   -0.0436   -2.6777   -4.7700 C   0  0  0  0  0  0  0  0  0  0  0  0
   -0.9777   -2.3018   -4.5964 H   0  0  0  0  0  0  0  0  0  0  0  0
    0.0594   -3.4782   -4.1428 H   0  0  0  0  0  0  0  0  0  0  0  0
    0.0584   -2.9879   -5.8100 H   0  0  0  0  0  0  0  0  0  0  0  0
    1.1825   -1.4639   -4.4231 S   0  0  0  0  0  0  0  0  0  0  0  0
    1.3376   -1.7558   -2.9626 C   0  0  0  0  0  0  0  0  0  0  0  0
    2.2914   -1.5834   -2.5344 H   0  0  0  0  0  0  0  0  0  0  0  0
    0.7184   -1.2158   -2.2941 H   0  0  0  0  0  0  0  0  0  0  0  0
    1.1534   -2.7508   -2.6471 H   0  0  0  0  0  0  0  0  0  0  0  0
  1  5  1  0
  5  8  1  0
  1  2  1  0
  1  3  1  0
  1  4  1  0
  5  6  1  0
  5  7  1  0
  8  9  1  0
  8 10  1  0
  8 11  1  0
 12 16  1  0
 16 17  1  0
 12 13  1  0
 12 14  1  0
 12 15  1  0
 17 18  1  0
 17 19  1  0
 17 20  1  0
M  CHG  1   8   1
M  END
>  <PDB_ID>  (429) 
pdb1k7h

>  <RESIDUE_NAME>  (429) 
LYS   MET

>  <FRAG_NAME>  (429) 
ETAM   MSM

>  <FRAG_ATOM_NUM>  (429) 
fragi: 11  fragj: 9

>  <atom.prop.CHAIN_ID>  (429) 
A A A A A A A A A A A Z Z Z Z Z Z Z Z Z

>  <atom.prop.IS_HEAVY_ATOM>  (429) 
1 0 0 0 1 0 0 1 0 0 0 1 0 0 0 1 1 0 0 0

>  <DIFUSE_FUNC_ATOM>  (429) 
n/a

>  <FINAL_SINGLE_POINT_ENERGY>  (429) 
0

>  <NONCOV_INTER_ENERGY_QM>  (429) 
0

>  <FF_Energy>  (429) 
5.14

>  <QM_Energy>  (429) 
0.03

>  <source>  (429) 
ETAM_MSM

>  <Index>  (429) 
2430

$$$$
ETAM-pdb2owo-A-LYS-374:MSM-pdb2owo-A-MET-321
     RDKit          3D

 20 18  0  0  0  0  0  0  0  0999 V2000
    1.2504    0.8693   -0.0000 C   0  0  0  0  0  0  0  0  0  0  0  0
    1.2752    1.3870    0.8445 H   0  0  0  0  0  0  0  0  0  0  0  0
    1.2148    1.4736   -0.7852 H   0  0  0  0  0  0  0  0  0  0  0  0
    2.1471    0.2530   -0.0652 H   0  0  0  0  0  0  0  0  0  0  0  0
    0.0000    0.0000    0.0000 C   0  0  0  0  0  0  0  0  0  0  0  0
    0.0162   -0.5889   -0.8167 H   0  0  0  0  0  0  0  0  0  0  0  0
    0.0161   -0.5898    0.8168 H   0  0  0  0  0  0  0  0  0  0  0  0
   -1.2504    0.8007    0.0000 N   0  0  0  0  0  4  0  0  0  0  0  0
   -2.0189    0.2181   -0.2644 H   0  0  0  0  0  0  0  0  0  0  0  0
   -1.4102    1.1687    0.9161 H   0  0  0  0  0  0  0  0  0  0  0  0
   -1.1630    1.5545   -0.6517 H   0  0  0  0  0  0  0  0  0  0  0  0
   -1.2206   -1.9114   -2.9707 C   0  0  0  0  0  0  0  0  0  0  0  0
   -0.2398   -1.7225   -3.2229 H   0  0  0  0  0  0  0  0  0  0  0  0
   -1.6207   -2.3769   -3.7988 H   0  0  0  0  0  0  0  0  0  0  0  0
   -1.2341   -2.6139   -2.1374 H   0  0  0  0  0  0  0  0  0  0  0  0
   -2.0942   -0.3710   -2.6277 S   0  0  0  0  0  0  0  0  0  0  0  0
   -3.7336   -0.7921   -3.3162 C   0  0  0  0  0  0  0  0  0  0  0  0
   -3.7061   -0.6630   -4.3026 H   0  0  0  0  0  0  0  0  0  0  0  0
   -3.9357   -1.7418   -3.0976 H   0  0  0  0  0  0  0  0  0  0  0  0
   -4.4134   -0.1915   -2.9078 H   0  0  0  0  0  0  0  0  0  0  0  0
  1  5  1  0
  5  8  1  0
  1  2  1  0
  1  3  1  0
  1  4  1  0
  5  6  1  0
  5  7  1  0
  8  9  1  0
  8 10  1  0
  8 11  1  0
 12 16  1  0
 16 17  1  0
 12 13  1  0
 12 14  1  0
 12 15  1  0
 17 18  1  0
 17 19  1  0
 17 20  1  0
M  CHG  1   8   1
M  END
>  <PDB_ID>  (430) 
pdb2owo

>  <RESIDUE_NAME>  (430) 
LYS   MET

>  <FRAG_NAME>  (430) 
ETAM   MSM

>  <FRAG_ATOM_NUM>  (430) 
fragi: 11  fragj: 9

>  <atom.prop.CHAIN_ID>  (430) 
A A A A A A A A A A A Z Z Z Z Z Z Z Z Z

>  <atom.prop.IS_HEAVY_ATOM>  (430) 
1 0 0 0 1 0 0 1 0 0 0 1 0 0 0 1 1 0 0 0

>  <DIFUSE_FUNC_ATOM>  (430) 
n/a

>  <FINAL_SINGLE_POINT_ENERGY>  (430) 
0

>  <NONCOV_INTER_ENERGY_QM>  (430) 
0

>  <FF_Energy>  (430) 
-2.64

>  <QM_Energy>  (430) 
-14.58

>  <source>  (430) 
ETAM_MSM

>  <Index>  (430) 
2433

$$$$
ETAM-pdb1k82-A-LYS-154:MSM-pdb1k82-A-MET-158
     RDKit          3D

 20 18  0  0  0  0  0  0  0  0999 V2000
    1.2458    0.8679   -0.0000 C   0  0  0  0  0  0  0  0  0  0  0  0
    1.2824    1.3722    0.8519 H   0  0  0  0  0  0  0  0  0  0  0  0
    1.2059    1.4821   -0.7761 H   0  0  0  0  0  0  0  0  0  0  0  0
    2.1397    0.2498   -0.0831 H   0  0  0  0  0  0  0  0  0  0  0  0
    0.0000    0.0000    0.0000 C   0  0  0  0  0  0  0  0  0  0  0  0
    0.0083   -0.5838   -0.8163 H   0  0  0  0  0  0  0  0  0  0  0  0
    0.0079   -0.5843    0.8161 H   0  0  0  0  0  0  0  0  0  0  0  0
   -1.2458    0.8190   -0.0000 N   0  0  0  0  0  4  0  0  0  0  0  0
   -1.7458    0.6589   -0.8499 H   0  0  0  0  0  0  0  0  0  0  0  0
   -1.8135    0.5558    0.7784 H   0  0  0  0  0  0  0  0  0  0  0  0
   -1.0051    1.7859    0.0712 H   0  0  0  0  0  0  0  0  0  0  0  0
   -0.2857    0.3702   -4.7916 C   0  0  0  0  0  0  0  0  0  0  0  0
   -0.5136   -0.5520   -5.1894 H   0  0  0  0  0  0  0  0  0  0  0  0
    0.7075    0.3045   -4.5257 H   0  0  0  0  0  0  0  0  0  0  0  0
   -0.3806    1.1156   -5.5813 H   0  0  0  0  0  0  0  0  0  0  0  0
   -1.3088    0.7172   -3.3560 S   0  0  0  0  0  0  0  0  0  0  0  0
   -2.9408    0.7541   -4.0995 C   0  0  0  0  0  0  0  0  0  0  0  0
   -2.8643    1.0171   -5.0615 H   0  0  0  0  0  0  0  0  0  0  0  0
   -3.3582   -0.1529   -4.0354 H   0  0  0  0  0  0  0  0  0  0  0  0
   -3.5133    1.4190   -3.6179 H   0  0  0  0  0  0  0  0  0  0  0  0
  1  5  1  0
  5  8  1  0
  1  2  1  0
  1  3  1  0
  1  4  1  0
  5  6  1  0
  5  7  1  0
  8  9  1  0
  8 10  1  0
  8 11  1  0
 12 16  1  0
 16 17  1  0
 12 13  1  0
 12 14  1  0
 12 15  1  0
 17 18  1  0
 17 19  1  0
 17 20  1  0
M  CHG  1   8   1
M  END
>  <PDB_ID>  (431) 
pdb1k82

>  <RESIDUE_NAME>  (431) 
LYS   MET

>  <FRAG_NAME>  (431) 
ETAM   MSM

>  <FRAG_ATOM_NUM>  (431) 
fragi: 11  fragj: 9

>  <atom.prop.CHAIN_ID>  (431) 
A A A A A A A A A A A Z Z Z Z Z Z Z Z Z

>  <atom.prop.IS_HEAVY_ATOM>  (431) 
1 0 0 0 1 0 0 1 0 0 0 1 0 0 0 1 1 0 0 0

>  <DIFUSE_FUNC_ATOM>  (431) 
n/a

>  <FINAL_SINGLE_POINT_ENERGY>  (431) 
0

>  <NONCOV_INTER_ENERGY_QM>  (431) 
0

>  <FF_Energy>  (431) 
-5.97

>  <QM_Energy>  (431) 
-14.18

>  <source>  (431) 
ETAM_MSM

>  <Index>  (431) 
2434

$$$$
ETAM-pdb2oqy-C-LYS-190:MSM-pdb2oqy-C-MET-219
     RDKit          3D

 20 18  0  0  0  0  0  0  0  0999 V2000
    1.2505    0.8816    0.0000 C   0  0  0  0  0  0  0  0  0  0  0  0
    1.3302    1.3131    0.8879 H   0  0  0  0  0  0  0  0  0  0  0  0
    1.1571    1.5584   -0.7176 H   0  0  0  0  0  0  0  0  0  0  0  0
    2.1440    0.2857   -0.1865 H   0  0  0  0  0  0  0  0  0  0  0  0
    0.0000    0.0000    0.0000 C   0  0  0  0  0  0  0  0  0  0  0  0
    0.0234   -0.5871   -0.8159 H   0  0  0  0  0  0  0  0  0  0  0  0
    0.0231   -0.5871    0.8166 H   0  0  0  0  0  0  0  0  0  0  0  0
   -1.2505    0.7950   -0.0000 N   0  0  0  0  0  4  0  0  0  0  0  0
   -2.0027    0.2361    0.3498 H   0  0  0  0  0  0  0  0  0  0  0  0
   -1.1351    1.5997    0.5835 H   0  0  0  0  0  0  0  0  0  0  0  0
   -1.4603    1.0882   -0.9333 H   0  0  0  0  0  0  0  0  0  0  0  0
   -0.1057    4.2904    2.7837 C   0  0  0  0  0  0  0  0  0  0  0  0
    0.7376    3.8408    2.4182 H   0  0  0  0  0  0  0  0  0  0  0  0
   -0.3224    3.8083    3.6593 H   0  0  0  0  0  0  0  0  0  0  0  0
    0.1301    5.3298    3.0123 H   0  0  0  0  0  0  0  0  0  0  0  0
   -1.4979    4.0951    1.5894 S   0  0  0  0  0  0  0  0  0  0  0  0
   -0.6195    4.4850    0.0631 C   0  0  0  0  0  0  0  0  0  0  0  0
   -1.2435    4.3854   -0.7104 H   0  0  0  0  0  0  0  0  0  0  0  0
   -0.2847    5.4256    0.1062 H   0  0  0  0  0  0  0  0  0  0  0  0
    0.1511    3.8581   -0.0433 H   0  0  0  0  0  0  0  0  0  0  0  0
  1  5  1  0
  5  8  1  0
  1  2  1  0
  1  3  1  0
  1  4  1  0
  5  6  1  0
  5  7  1  0
  8  9  1  0
  8 10  1  0
  8 11  1  0
 12 16  1  0
 16 17  1  0
 12 13  1  0
 12 14  1  0
 12 15  1  0
 17 18  1  0
 17 19  1  0
 17 20  1  0
M  CHG  1   8   1
M  END
>  <PDB_ID>  (432) 
pdb2oqy

>  <RESIDUE_NAME>  (432) 
LYS   MET

>  <FRAG_NAME>  (432) 
ETAM   MSM

>  <FRAG_ATOM_NUM>  (432) 
fragi: 11  fragj: 9

>  <atom.prop.CHAIN_ID>  (432) 
A A A A A A A A A A A Z Z Z Z Z Z Z Z Z

>  <atom.prop.IS_HEAVY_ATOM>  (432) 
1 0 0 0 1 0 0 1 0 0 0 1 0 0 0 1 1 0 0 0

>  <DIFUSE_FUNC_ATOM>  (432) 
n/a

>  <FINAL_SINGLE_POINT_ENERGY>  (432) 
0

>  <NONCOV_INTER_ENERGY_QM>  (432) 
0

>  <FF_Energy>  (432) 
-4.34

>  <QM_Energy>  (432) 
-11.98

>  <source>  (432) 
ETAM_MSM

>  <Index>  (432) 
2438

$$$$
ETAM-pdb1k82-B-LYS-154:MSM-pdb1k82-B-MET-158
     RDKit          3D

 20 18  0  0  0  0  0  0  0  0999 V2000
    1.2446    0.8784   -0.0000 C   0  0  0  0  0  0  0  0  0  0  0  0
    1.1691    1.5338    0.7442 H   0  0  0  0  0  0  0  0  0  0  0  0
    1.2984    1.3503   -0.8739 H   0  0  0  0  0  0  0  0  0  0  0  0
    2.1506    0.2889    0.1399 H   0  0  0  0  0  0  0  0  0  0  0  0
    0.0000    0.0000    0.0000 C   0  0  0  0  0  0  0  0  0  0  0  0
    0.0054   -0.5734   -0.8162 H   0  0  0  0  0  0  0  0  0  0  0  0
    0.0043   -0.5734    0.8166 H   0  0  0  0  0  0  0  0  0  0  0  0
   -1.2446    0.8387    0.0000 N   0  0  0  0  0  4  0  0  0  0  0  0
   -1.8662    0.4982   -0.7024 H   0  0  0  0  0  0  0  0  0  0  0  0
   -1.6785    0.7779    0.8962 H   0  0  0  0  0  0  0  0  0  0  0  0
   -0.9983    1.7861   -0.1941 H   0  0  0  0  0  0  0  0  0  0  0  0
    0.5533    0.3204   -4.8779 C   0  0  0  0  0  0  0  0  0  0  0  0
    0.2886   -0.5847   -5.2731 H   0  0  0  0  0  0  0  0  0  0  0  0
    1.5149    0.2121   -4.5468 H   0  0  0  0  0  0  0  0  0  0  0  0
    0.5357    1.0681   -5.6709 H   0  0  0  0  0  0  0  0  0  0  0  0
   -0.5412    0.7632   -3.5146 S   0  0  0  0  0  0  0  0  0  0  0  0
   -2.1277    0.7591   -4.3441 C   0  0  0  0  0  0  0  0  0  0  0  0
   -2.6242    1.6000   -4.1240 H   0  0  0  0  0  0  0  0  0  0  0  0
   -1.9892    0.7059   -5.3343 H   0  0  0  0  0  0  0  0  0  0  0  0
   -2.6632   -0.0307   -4.0406 H   0  0  0  0  0  0  0  0  0  0  0  0
  1  5  1  0
  5  8  1  0
  1  2  1  0
  1  3  1  0
  1  4  1  0
  5  6  1  0
  5  7  1  0
  8  9  1  0
  8 10  1  0
  8 11  1  0
 12 16  1  0
 16 17  1  0
 12 13  1  0
 12 14  1  0
 12 15  1  0
 17 18  1  0
 17 19  1  0
 17 20  1  0
M  CHG  1   8   1
M  END
>  <PDB_ID>  (433) 
pdb1k82

>  <RESIDUE_NAME>  (433) 
LYS   MET

>  <FRAG_NAME>  (433) 
ETAM   MSM

>  <FRAG_ATOM_NUM>  (433) 
fragi: 11  fragj: 9

>  <atom.prop.CHAIN_ID>  (433) 
A A A A A A A A A A A Z Z Z Z Z Z Z Z Z

>  <atom.prop.IS_HEAVY_ATOM>  (433) 
1 0 0 0 1 0 0 1 0 0 0 1 0 0 0 1 1 0 0 0

>  <DIFUSE_FUNC_ATOM>  (433) 
n/a

>  <FINAL_SINGLE_POINT_ENERGY>  (433) 
0

>  <NONCOV_INTER_ENERGY_QM>  (433) 
0

>  <FF_Energy>  (433) 
-5.5

>  <QM_Energy>  (433) 
-11.93

>  <source>  (433) 
ETAM_MSM

>  <Index>  (433) 
2441

$$$$
ETAM-pdb2oqy-D-LYS-190:MSM-pdb2oqy-D-MET-219
     RDKit          3D

 20 18  0  0  0  0  0  0  0  0999 V2000
    1.2507    0.8610    0.0000 C   0  0  0  0  0  0  0  0  0  0  0  0
    1.3391    1.2948    0.8879 H   0  0  0  0  0  0  0  0  0  0  0  0
    1.1685    1.5419   -0.7170 H   0  0  0  0  0  0  0  0  0  0  0  0
    2.1395    0.2582   -0.1865 H   0  0  0  0  0  0  0  0  0  0  0  0
    0.0000    0.0000    0.0000 C   0  0  0  0  0  0  0  0  0  0  0  0
    0.0135   -0.5922   -0.8161 H   0  0  0  0  0  0  0  0  0  0  0  0
    0.0127   -0.5919    0.8163 H   0  0  0  0  0  0  0  0  0  0  0  0
   -1.2507    0.8001   -0.0000 N   0  0  0  0  0  4  0  0  0  0  0  0
   -1.2369    1.4412    0.7681 H   0  0  0  0  0  0  0  0  0  0  0  0
   -1.3205    1.3094   -0.8576 H   0  0  0  0  0  0  0  0  0  0  0  0
   -2.0368    0.1892    0.0900 H   0  0  0  0  0  0  0  0  0  0  0  0
   -0.0809    4.3012    2.7239 C   0  0  0  0  0  0  0  0  0  0  0  0
    0.7808    3.8499    2.3786 H   0  0  0  0  0  0  0  0  0  0  0  0
   -0.2822    3.8234    3.6171 H   0  0  0  0  0  0  0  0  0  0  0  0
    0.1613    5.3389    2.9536 H   0  0  0  0  0  0  0  0  0  0  0  0
   -1.4451    4.0732    1.5474 S   0  0  0  0  0  0  0  0  0  0  0  0
   -0.5857    4.5044   -0.0049 C   0  0  0  0  0  0  0  0  0  0  0  0
    0.3737    4.6750    0.1993 H   0  0  0  0  0  0  0  0  0  0  0  0
   -0.6731    3.7430   -0.6394 H   0  0  0  0  0  0  0  0  0  0  0  0
   -1.0080    5.3212   -0.3865 H   0  0  0  0  0  0  0  0  0  0  0  0
  1  5  1  0
  5  8  1  0
  1  2  1  0
  1  3  1  0
  1  4  1  0
  5  6  1  0
  5  7  1  0
  8  9  1  0
  8 10  1  0
  8 11  1  0
 12 16  1  0
 16 17  1  0
 12 13  1  0
 12 14  1  0
 12 15  1  0
 17 18  1  0
 17 19  1  0
 17 20  1  0
M  CHG  1   8   1
M  END
>  <PDB_ID>  (434) 
pdb2oqy

>  <RESIDUE_NAME>  (434) 
LYS   MET

>  <FRAG_NAME>  (434) 
ETAM   MSM

>  <FRAG_ATOM_NUM>  (434) 
fragi: 11  fragj: 9

>  <atom.prop.CHAIN_ID>  (434) 
A A A A A A A A A A A Z Z Z Z Z Z Z Z Z

>  <atom.prop.IS_HEAVY_ATOM>  (434) 
1 0 0 0 1 0 0 1 0 0 0 1 0 0 0 1 1 0 0 0

>  <DIFUSE_FUNC_ATOM>  (434) 
n/a

>  <FINAL_SINGLE_POINT_ENERGY>  (434) 
0

>  <NONCOV_INTER_ENERGY_QM>  (434) 
0

>  <FF_Energy>  (434) 
-4.23

>  <QM_Energy>  (434) 
-11.78

>  <source>  (434) 
ETAM_MSM

>  <Index>  (434) 
2448

$$$$
ETAM-pdb1kj7-A-LYS-20:MSM-pdb1kj7-A-MET-36
     RDKit          3D

 20 18  0  0  0  0  0  0  0  0999 V2000
    1.2329    0.8738    0.0000 C   0  0  0  0  0  0  0  0  0  0  0  0
    1.2134    1.4546    0.8164 H   0  0  0  0  0  0  0  0  0  0  0  0
    1.2130    1.4540   -0.8176 H   0  0  0  0  0  0  0  0  0  0  0  0
    2.1585    0.2981    0.0007 H   0  0  0  0  0  0  0  0  0  0  0  0
    0.0000    0.0000    0.0000 C   0  0  0  0  0  0  0  0  0  0  0  0
    0.0072   -0.5796   -0.8158 H   0  0  0  0  0  0  0  0  0  0  0  0
    0.0076   -0.5785    0.8169 H   0  0  0  0  0  0  0  0  0  0  0  0
   -1.2329    0.8273    0.0000 N   0  0  0  0  0  4  0  0  0  0  0  0
   -1.8453    0.5123   -0.7260 H   0  0  0  0  0  0  0  0  0  0  0  0
   -1.6929    0.7411    0.8839 H   0  0  0  0  0  0  0  0  0  0  0  0
   -0.9922    1.7852   -0.1585 H   0  0  0  0  0  0  0  0  0  0  0  0
   -4.4357    1.8314    2.0284 C   0  0  0  0  0  0  0  0  0  0  0  0
   -4.6373    2.7919    1.7541 H   0  0  0  0  0  0  0  0  0  0  0  0
   -5.1253    1.5833    2.7362 H   0  0  0  0  0  0  0  0  0  0  0  0
   -4.5642    1.1810    1.1631 H   0  0  0  0  0  0  0  0  0  0  0  0
   -2.7657    1.6985    2.6944 S   0  0  0  0  0  0  0  0  0  0  0  0
   -2.8414    0.1077    3.5026 C   0  0  0  0  0  0  0  0  0  0  0  0
   -2.3389   -0.5705    2.9619 H   0  0  0  0  0  0  0  0  0  0  0  0
   -2.4314    0.1712    4.4150 H   0  0  0  0  0  0  0  0  0  0  0  0
   -3.7968   -0.1825    3.5899 H   0  0  0  0  0  0  0  0  0  0  0  0
  1  5  1  0
  5  8  1  0
  1  2  1  0
  1  3  1  0
  1  4  1  0
  5  6  1  0
  5  7  1  0
  8  9  1  0
  8 10  1  0
  8 11  1  0
 12 16  1  0
 16 17  1  0
 12 13  1  0
 12 14  1  0
 12 15  1  0
 17 18  1  0
 17 19  1  0
 17 20  1  0
M  CHG  1   8   1
M  END
>  <PDB_ID>  (435) 
pdb1kj7

>  <RESIDUE_NAME>  (435) 
LYS   MET

>  <FRAG_NAME>  (435) 
ETAM   MSM

>  <FRAG_ATOM_NUM>  (435) 
fragi: 11  fragj: 9

>  <atom.prop.CHAIN_ID>  (435) 
A A A A A A A A A A A Z Z Z Z Z Z Z Z Z

>  <atom.prop.IS_HEAVY_ATOM>  (435) 
1 0 0 0 1 0 0 1 0 0 0 1 0 0 0 1 1 0 0 0

>  <DIFUSE_FUNC_ATOM>  (435) 
n/a

>  <FINAL_SINGLE_POINT_ENERGY>  (435) 
0

>  <NONCOV_INTER_ENERGY_QM>  (435) 
0

>  <FF_Energy>  (435) 
-4.65

>  <QM_Energy>  (435) 
-14.66

>  <source>  (435) 
ETAM_MSM

>  <Index>  (435) 
2463

$$$$
ETAM-pdb1kj7-B-LYS-20:MSM-pdb1kj7-B-MET-36
     RDKit          3D

 20 18  0  0  0  0  0  0  0  0999 V2000
    1.2440    0.8698   -0.0000 C   0  0  0  0  0  0  0  0  0  0  0  0
    1.2771    1.3728    0.8582 H   0  0  0  0  0  0  0  0  0  0  0  0
    1.1882    1.4995   -0.7683 H   0  0  0  0  0  0  0  0  0  0  0  0
    2.1459    0.2652   -0.0953 H   0  0  0  0  0  0  0  0  0  0  0  0
    0.0000    0.0000    0.0000 C   0  0  0  0  0  0  0  0  0  0  0  0
    0.0063   -0.5800   -0.8162 H   0  0  0  0  0  0  0  0  0  0  0  0
    0.0051   -0.5801    0.8167 H   0  0  0  0  0  0  0  0  0  0  0  0
   -1.2440    0.8279   -0.0000 N   0  0  0  0  0  4  0  0  0  0  0  0
   -1.0208    1.7568    0.2902 H   0  0  0  0  0  0  0  0  0  0  0  0
   -1.6267    0.8459   -0.9218 H   0  0  0  0  0  0  0  0  0  0  0  0
   -1.9048    0.4271    0.6320 H   0  0  0  0  0  0  0  0  0  0  0  0
   -3.8491    2.1396    2.4589 C   0  0  0  0  0  0  0  0  0  0  0  0
   -4.0649    3.1156    2.2500 H   0  0  0  0  0  0  0  0  0  0  0  0
   -4.3691    1.9082    3.3068 H   0  0  0  0  0  0  0  0  0  0  0  0
   -4.2111    1.5166    1.6411 H   0  0  0  0  0  0  0  0  0  0  0  0
   -2.0738    1.9248    2.7254 S   0  0  0  0  0  0  0  0  0  0  0  0
   -2.0523    0.4661    3.7737 C   0  0  0  0  0  0  0  0  0  0  0  0
   -2.5897   -0.2607    3.3452 H   0  0  0  0  0  0  0  0  0  0  0  0
   -1.1085    0.1565    3.8942 H   0  0  0  0  0  0  0  0  0  0  0  0
   -2.4465    0.6905    4.6655 H   0  0  0  0  0  0  0  0  0  0  0  0
  1  5  1  0
  5  8  1  0
  1  2  1  0
  1  3  1  0
  1  4  1  0
  5  6  1  0
  5  7  1  0
  8  9  1  0
  8 10  1  0
  8 11  1  0
 12 16  1  0
 16 17  1  0
 12 13  1  0
 12 14  1  0
 12 15  1  0
 17 18  1  0
 17 19  1  0
 17 20  1  0
M  CHG  1   8   1
M  END
>  <PDB_ID>  (436) 
pdb1kj7

>  <RESIDUE_NAME>  (436) 
LYS   MET

>  <FRAG_NAME>  (436) 
ETAM   MSM

>  <FRAG_ATOM_NUM>  (436) 
fragi: 11  fragj: 9

>  <atom.prop.CHAIN_ID>  (436) 
A A A A A A A A A A A Z Z Z Z Z Z Z Z Z

>  <atom.prop.IS_HEAVY_ATOM>  (436) 
1 0 0 0 1 0 0 1 0 0 0 1 0 0 0 1 1 0 0 0

>  <DIFUSE_FUNC_ATOM>  (436) 
n/a

>  <FINAL_SINGLE_POINT_ENERGY>  (436) 
0

>  <NONCOV_INTER_ENERGY_QM>  (436) 
0

>  <FF_Energy>  (436) 
-3.66

>  <QM_Energy>  (436) 
-12.04

>  <source>  (436) 
ETAM_MSM

>  <Index>  (436) 
2464

$$$$
ETAM-pdb2p1m-B-LYS-485:MSM-pdb2p1m-B-MET-460
     RDKit          3D

 20 18  0  0  0  0  0  0  0  0999 V2000
    1.2588    0.8969   -0.0000 C   0  0  0  0  0  0  0  0  0  0  0  0
    1.2381    1.4522    0.8143 H   0  0  0  0  0  0  0  0  0  0  0  0
    1.2436    1.4455   -0.8184 H   0  0  0  0  0  0  0  0  0  0  0  0
    2.1569    0.2793    0.0057 H   0  0  0  0  0  0  0  0  0  0  0  0
    0.0000    0.0000    0.0000 C   0  0  0  0  0  0  0  0  0  0  0  0
    0.0086   -0.5648   -0.8165 H   0  0  0  0  0  0  0  0  0  0  0  0
    0.0088   -0.5647    0.8160 H   0  0  0  0  0  0  0  0  0  0  0  0
   -1.2588    0.8468   -0.0000 N   0  0  0  0  0  4  0  0  0  0  0  0
   -1.9305    0.4162   -0.5942 H   0  0  0  0  0  0  0  0  0  0  0  0
   -1.6045    0.9006    0.9309 H   0  0  0  0  0  0  0  0  0  0  0  0
   -1.0301    1.7548   -0.3372 H   0  0  0  0  0  0  0  0  0  0  0  0
   -0.2007   -0.5008    4.1832 C   0  0  0  0  0  0  0  0  0  0  0  0
   -0.0235   -0.3952    5.1891 H   0  0  0  0  0  0  0  0  0  0  0  0
    0.7145   -0.3828    3.7327 H   0  0  0  0  0  0  0  0  0  0  0  0
   -0.5284   -1.5258    4.0095 H   0  0  0  0  0  0  0  0  0  0  0  0
   -1.3757    0.7196    3.5981 S   0  0  0  0  0  0  0  0  0  0  0  0
   -2.5091   -0.2177    2.5194 C   0  0  0  0  0  0  0  0  0  0  0  0
   -2.9485   -0.9297    3.0595 H   0  0  0  0  0  0  0  0  0  0  0  0
   -3.1921    0.4080    2.1536 H   0  0  0  0  0  0  0  0  0  0  0  0
   -1.9824   -0.6233    1.7785 H   0  0  0  0  0  0  0  0  0  0  0  0
  1  5  1  0
  5  8  1  0
  1  2  1  0
  1  3  1  0
  1  4  1  0
  5  6  1  0
  5  7  1  0
  8  9  1  0
  8 10  1  0
  8 11  1  0
 12 16  1  0
 16 17  1  0
 12 13  1  0
 12 14  1  0
 12 15  1  0
 17 18  1  0
 17 19  1  0
 17 20  1  0
M  CHG  1   8   1
M  END
>  <PDB_ID>  (437) 
pdb2p1m

>  <RESIDUE_NAME>  (437) 
LYS   MET

>  <FRAG_NAME>  (437) 
ETAM   MSM

>  <FRAG_ATOM_NUM>  (437) 
fragi: 11  fragj: 9

>  <atom.prop.CHAIN_ID>  (437) 
A A A A A A A A A A A Z Z Z Z Z Z Z Z Z

>  <atom.prop.IS_HEAVY_ATOM>  (437) 
1 0 0 0 1 0 0 1 0 0 0 1 0 0 0 1 1 0 0 0

>  <DIFUSE_FUNC_ATOM>  (437) 
n/a

>  <FINAL_SINGLE_POINT_ENERGY>  (437) 
0

>  <NONCOV_INTER_ENERGY_QM>  (437) 
0

>  <FF_Energy>  (437) 
0.1

>  <QM_Energy>  (437) 
-6.62

>  <source>  (437) 
ETAM_MSM

>  <Index>  (437) 
2468

$$$$
ETAM-pdb2p1l-E-LYS-87:MSM-pdb2p1l-E-MET-83
     RDKit          3D

 20 18  0  0  0  0  0  0  0  0999 V2000
    1.2670    0.8507   -0.0000 C   0  0  0  0  0  0  0  0  0  0  0  0
    1.1980    1.5143    0.7470 H   0  0  0  0  0  0  0  0  0  0  0  0
    1.3142    1.3402   -0.8725 H   0  0  0  0  0  0  0  0  0  0  0  0
    2.1756    0.2627    0.1290 H   0  0  0  0  0  0  0  0  0  0  0  0
    0.0000    0.0000    0.0000 C   0  0  0  0  0  0  0  0  0  0  0  0
   -0.0083   -0.5808   -0.8165 H   0  0  0  0  0  0  0  0  0  0  0  0
   -0.0086   -0.5812    0.8162 H   0  0  0  0  0  0  0  0  0  0  0  0
   -1.2670    0.8442    0.0000 N   0  0  0  0  0  4  0  0  0  0  0  0
   -1.2267    1.4716    0.7696 H   0  0  0  0  0  0  0  0  0  0  0  0
   -1.3108    1.3466   -0.8570 H   0  0  0  0  0  0  0  0  0  0  0  0
   -2.0496    0.2366    0.0871 H   0  0  0  0  0  0  0  0  0  0  0  0
   -0.1788   -1.6673    4.9804 C   0  0  0  0  0  0  0  0  0  0  0  0
   -0.0347   -2.0646    5.9084 H   0  0  0  0  0  0  0  0  0  0  0  0
   -1.1833   -1.7032    4.8063 H   0  0  0  0  0  0  0  0  0  0  0  0
    0.1477   -0.6274    4.9825 H   0  0  0  0  0  0  0  0  0  0  0  0
    0.7117   -2.6259    3.7384 S   0  0  0  0  0  0  0  0  0  0  0  0
    0.0754   -1.9441    2.3045 C   0  0  0  0  0  0  0  0  0  0  0  0
    0.7041   -2.0686    1.5177 H   0  0  0  0  0  0  0  0  0  0  0  0
   -0.8111   -2.3673    2.0488 H   0  0  0  0  0  0  0  0  0  0  0  0
   -0.0863   -0.9467    2.4025 H   0  0  0  0  0  0  0  0  0  0  0  0
  1  5  1  0
  5  8  1  0
  1  2  1  0
  1  3  1  0
  1  4  1  0
  5  6  1  0
  5  7  1  0
  8  9  1  0
  8 10  1  0
  8 11  1  0
 12 16  1  0
 16 17  1  0
 12 13  1  0
 12 14  1  0
 12 15  1  0
 17 18  1  0
 17 19  1  0
 17 20  1  0
M  CHG  1   8   1
M  END
>  <PDB_ID>  (438) 
pdb2p1l

>  <RESIDUE_NAME>  (438) 
LYS   MET

>  <FRAG_NAME>  (438) 
ETAM   MSM

>  <FRAG_ATOM_NUM>  (438) 
fragi: 11  fragj: 9

>  <atom.prop.CHAIN_ID>  (438) 
A A A A A A A A A A A Z Z Z Z Z Z Z Z Z

>  <atom.prop.IS_HEAVY_ATOM>  (438) 
1 0 0 0 1 0 0 1 0 0 0 1 0 0 0 1 1 0 0 0

>  <DIFUSE_FUNC_ATOM>  (438) 
n/a

>  <FINAL_SINGLE_POINT_ENERGY>  (438) 
0

>  <NONCOV_INTER_ENERGY_QM>  (438) 
0

>  <FF_Energy>  (438) 
38.96

>  <QM_Energy>  (438) 
6.61

>  <source>  (438) 
ETAM_MSM

>  <Index>  (438) 
2469

$$$$
ETAM-pdb2p1l-A-LYS-87:MSM-pdb2p1l-A-MET-83
     RDKit          3D

 20 18  0  0  0  0  0  0  0  0999 V2000
    1.2383    0.8708    0.0000 C   0  0  0  0  0  0  0  0  0  0  0  0
    1.0400    1.7147    0.5016 H   0  0  0  0  0  0  0  0  0  0  0  0
    1.4747    1.0962   -0.9460 H   0  0  0  0  0  0  0  0  0  0  0  0
    2.1002    0.3913    0.4640 H   0  0  0  0  0  0  0  0  0  0  0  0
    0.0000    0.0000    0.0000 C   0  0  0  0  0  0  0  0  0  0  0  0
    0.0098   -0.5830   -0.8157 H   0  0  0  0  0  0  0  0  0  0  0  0
    0.0098   -0.5828    0.8162 H   0  0  0  0  0  0  0  0  0  0  0  0
   -1.2383    0.8187    0.0000 N   0  0  0  0  0  4  0  0  0  0  0  0
   -1.0021    1.7810   -0.1371 H   0  0  0  0  0  0  0  0  0  0  0  0
   -1.8390    0.5145   -0.7401 H   0  0  0  0  0  0  0  0  0  0  0  0
   -1.7084    0.7123    0.8770 H   0  0  0  0  0  0  0  0  0  0  0  0
   -0.6495    0.2523    5.5508 C   0  0  0  0  0  0  0  0  0  0  0  0
   -0.4440    0.1420    6.5508 H   0  0  0  0  0  0  0  0  0  0  0  0
   -1.6643    0.1229    5.4663 H   0  0  0  0  0  0  0  0  0  0  0  0
   -0.3945    1.2677    5.2471 H   0  0  0  0  0  0  0  0  0  0  0  0
    0.2262   -1.0221    4.5873 S   0  0  0  0  0  0  0  0  0  0  0  0
   -0.6983   -0.9686    3.0383 C   0  0  0  0  0  0  0  0  0  0  0  0
   -0.2200   -1.5129    2.3512 H   0  0  0  0  0  0  0  0  0  0  0  0
   -1.6127   -1.3424    3.1874 H   0  0  0  0  0  0  0  0  0  0  0  0
   -0.7680   -0.0210    2.7296 H   0  0  0  0  0  0  0  0  0  0  0  0
  1  5  1  0
  5  8  1  0
  1  2  1  0
  1  3  1  0
  1  4  1  0
  5  6  1  0
  5  7  1  0
  8  9  1  0
  8 10  1  0
  8 11  1  0
 12 16  1  0
 16 17  1  0
 12 13  1  0
 12 14  1  0
 12 15  1  0
 17 18  1  0
 17 19  1  0
 17 20  1  0
M  CHG  1   8   1
M  END
>  <PDB_ID>  (439) 
pdb2p1l

>  <RESIDUE_NAME>  (439) 
LYS   MET

>  <FRAG_NAME>  (439) 
ETAM   MSM

>  <FRAG_ATOM_NUM>  (439) 
fragi: 11  fragj: 9

>  <atom.prop.CHAIN_ID>  (439) 
A A A A A A A A A A A Z Z Z Z Z Z Z Z Z

>  <atom.prop.IS_HEAVY_ATOM>  (439) 
1 0 0 0 1 0 0 1 0 0 0 1 0 0 0 1 1 0 0 0

>  <DIFUSE_FUNC_ATOM>  (439) 
n/a

>  <FINAL_SINGLE_POINT_ENERGY>  (439) 
0

>  <NONCOV_INTER_ENERGY_QM>  (439) 
0

>  <FF_Energy>  (439) 
7.12

>  <QM_Energy>  (439) 
1.27

>  <source>  (439) 
ETAM_MSM

>  <Index>  (439) 
2470

$$$$
ETAM-pdb1klt-A-LYS-159:MSM-pdb1klt-A-MET-135
     RDKit          3D

 20 18  0  0  0  0  0  0  0  0999 V2000
    1.2677    0.8530    0.0000 C   0  0  0  0  0  0  0  0  0  0  0  0
    1.2768    1.4184    0.8261 H   0  0  0  0  0  0  0  0  0  0  0  0
    1.2588    1.4443   -0.8064 H   0  0  0  0  0  0  0  0  0  0  0  0
    2.1908    0.2737   -0.0190 H   0  0  0  0  0  0  0  0  0  0  0  0
    0.0000    0.0000    0.0000 C   0  0  0  0  0  0  0  0  0  0  0  0
   -0.0093   -0.5787   -0.8159 H   0  0  0  0  0  0  0  0  0  0  0  0
   -0.0101   -0.5790    0.8159 H   0  0  0  0  0  0  0  0  0  0  0  0
   -1.2677    0.8494   -0.0000 N   0  0  0  0  0  4  0  0  0  0  0  0
   -1.2729    1.4679    0.8345 H   0  0  0  0  0  0  0  0  0  0  0  0
   -1.3023    1.4328   -0.8590 H   0  0  0  0  0  0  0  0  0  0  0  0
   -2.0978    0.2218    0.0248 H   0  0  0  0  0  0  0  0  0  0  0  0
    1.2575    0.2262    4.4529 C   0  0  0  0  0  0  0  0  0  0  0  0
    1.7937   -0.4621    5.0160 H   0  0  0  0  0  0  0  0  0  0  0  0
    0.8082    0.8303    5.1692 H   0  0  0  0  0  0  0  0  0  0  0  0
    1.9746    0.8377    3.9051 H   0  0  0  0  0  0  0  0  0  0  0  0
   -0.0132   -0.6233    3.4519 S   0  0  0  0  0  0  0  0  0  0  0  0
   -1.1841    0.8353    3.0286 C   0  0  0  0  0  0  0  0  0  0  0  0
   -2.0904    0.4597    3.0075 H   0  0  0  0  0  0  0  0  0  0  0  0
   -1.0662    1.4962    3.7446 H   0  0  0  0  0  0  0  0  0  0  0  0
   -0.8949    1.1720    2.1532 H   0  0  0  0  0  0  0  0  0  0  0  0
  1  5  1  0
  5  8  1  0
  1  2  1  0
  1  3  1  0
  1  4  1  0
  5  6  1  0
  5  7  1  0
  8  9  1  0
  8 10  1  0
  8 11  1  0
 12 16  1  0
 16 17  1  0
 12 13  1  0
 12 14  1  0
 12 15  1  0
 17 18  1  0
 17 19  1  0
 17 20  1  0
M  CHG  1   8   1
M  END
>  <PDB_ID>  (440) 
pdb1klt

>  <RESIDUE_NAME>  (440) 
LYS   MET

>  <FRAG_NAME>  (440) 
ETAM   MSM

>  <FRAG_ATOM_NUM>  (440) 
fragi: 11  fragj: 9

>  <atom.prop.CHAIN_ID>  (440) 
A A A A A A A A A A A Z Z Z Z Z Z Z Z Z

>  <atom.prop.IS_HEAVY_ATOM>  (440) 
1 0 0 0 1 0 0 1 0 0 0 1 0 0 0 1 1 0 0 0

>  <DIFUSE_FUNC_ATOM>  (440) 
n/a

>  <FINAL_SINGLE_POINT_ENERGY>  (440) 
0

>  <NONCOV_INTER_ENERGY_QM>  (440) 
0

>  <FF_Energy>  (440) 
6.6

>  <QM_Energy>  (440) 
0.42

>  <source>  (440) 
ETAM_MSM

>  <Index>  (440) 
2477

$$$$
ETAM-pdb2p4b-A-LYS-306:MSM-pdb2p4b-A-MET-276
     RDKit          3D

 20 18  0  0  0  0  0  0  0  0999 V2000
    1.2546    0.8642    0.0000 C   0  0  0  0  0  0  0  0  0  0  0  0
    1.2287    1.4580   -0.7970 H   0  0  0  0  0  0  0  0  0  0  0  0
    2.0487    0.2669   -0.0387 H   0  0  0  0  0  0  0  0  0  0  0  0
    1.3163    1.4790    0.8979 H   0  0  0  0  0  0  0  0  0  0  0  0
    0.0000    0.0000    0.0000 C   0  0  0  0  0  0  0  0  0  0  0  0
    0.0125   -0.5894   -0.8163 H   0  0  0  0  0  0  0  0  0  0  0  0
    0.0126   -0.5894    0.8169 H   0  0  0  0  0  0  0  0  0  0  0  0
   -1.2546    0.8049   -0.0000 N   0  0  0  0  0  4  0  0  0  0  0  0
   -1.8899    0.4267   -0.6718 H   0  0  0  0  0  0  0  0  0  0  0  0
   -1.6683    0.7716    0.9089 H   0  0  0  0  0  0  0  0  0  0  0  0
   -1.0394    1.7514   -0.2368 H   0  0  0  0  0  0  0  0  0  0  0  0
   -4.6167    2.3935    0.6198 C   0  0  0  0  0  0  0  0  0  0  0  0
   -4.0558    2.3465   -0.2341 H   0  0  0  0  0  0  0  0  0  0  0  0
   -5.5335    2.7458    0.3350 H   0  0  0  0  0  0  0  0  0  0  0  0
   -4.7392    1.3830    1.0096 H   0  0  0  0  0  0  0  0  0  0  0  0
   -3.8467    3.5245    1.8250 S   0  0  0  0  0  0  0  0  0  0  0  0
   -2.1318    3.0574    1.6413 C   0  0  0  0  0  0  0  0  0  0  0  0
   -1.6434    3.7607    1.1211 H   0  0  0  0  0  0  0  0  0  0  0  0
   -1.7089    2.9616    2.5449 H   0  0  0  0  0  0  0  0  0  0  0  0
   -2.0695    2.1839    1.1537 H   0  0  0  0  0  0  0  0  0  0  0  0
  1  5  1  0
  5  8  1  0
  1  2  1  0
  1  3  1  0
  1  4  1  0
  5  6  1  0
  5  7  1  0
  8  9  1  0
  8 10  1  0
  8 11  1  0
 12 16  1  0
 16 17  1  0
 12 13  1  0
 12 14  1  0
 12 15  1  0
 17 18  1  0
 17 19  1  0
 17 20  1  0
M  CHG  1   8   1
M  END
>  <PDB_ID>  (441) 
pdb2p4b

>  <RESIDUE_NAME>  (441) 
LYS   MET

>  <FRAG_NAME>  (441) 
ETAM   MSM

>  <FRAG_ATOM_NUM>  (441) 
fragi: 11  fragj: 9

>  <atom.prop.CHAIN_ID>  (441) 
A A A A A A A A A A A Z Z Z Z Z Z Z Z Z

>  <atom.prop.IS_HEAVY_ATOM>  (441) 
1 0 0 0 1 0 0 1 0 0 0 1 0 0 0 1 1 0 0 0

>  <DIFUSE_FUNC_ATOM>  (441) 
n/a

>  <FINAL_SINGLE_POINT_ENERGY>  (441) 
0

>  <NONCOV_INTER_ENERGY_QM>  (441) 
0

>  <FF_Energy>  (441) 
24.69

>  <QM_Energy>  (441) 
10.66

>  <source>  (441) 
ETAM_MSM

>  <Index>  (441) 
2490

$$$$
ETAM-pdb1kop-A-LYS-203:MSM-pdb1kop-A-MET-146
     RDKit          3D

 20 18  0  0  0  0  0  0  0  0999 V2000
    1.2566    0.8493    0.0000 C   0  0  0  0  0  0  0  0  0  0  0  0
    1.2218    1.4711   -0.7804 H   0  0  0  0  0  0  0  0  0  0  0  0
    2.0482    0.2472   -0.0819 H   0  0  0  0  0  0  0  0  0  0  0  0
    1.3556    1.4375    0.9124 H   0  0  0  0  0  0  0  0  0  0  0  0
    0.0000    0.0000    0.0000 C   0  0  0  0  0  0  0  0  0  0  0  0
    0.0139   -0.6014   -0.8159 H   0  0  0  0  0  0  0  0  0  0  0  0
    0.0143   -0.6010    0.8161 H   0  0  0  0  0  0  0  0  0  0  0  0
   -1.2566    0.7853    0.0000 N   0  0  0  0  0  4  0  0  0  0  0  0
   -1.0432    1.7588    0.0925 H   0  0  0  0  0  0  0  0  0  0  0  0
   -1.7471    0.6329   -0.8593 H   0  0  0  0  0  0  0  0  0  0  0  0
   -1.8316    0.4970    0.7666 H   0  0  0  0  0  0  0  0  0  0  0  0
   -4.7299    2.0541    3.0142 C   0  0  0  0  0  0  0  0  0  0  0  0
   -5.2232    1.2973    2.5320 H   0  0  0  0  0  0  0  0  0  0  0  0
   -4.8338    2.8796    2.4171 H   0  0  0  0  0  0  0  0  0  0  0  0
   -5.2304    2.2457    3.9633 H   0  0  0  0  0  0  0  0  0  0  0  0
   -2.9851    1.6401    3.2306 S   0  0  0  0  0  0  0  0  0  0  0  0
   -2.2640    3.2675    3.4695 C   0  0  0  0  0  0  0  0  0  0  0  0
   -2.2760    3.7678    2.6038 H   0  0  0  0  0  0  0  0  0  0  0  0
   -2.7941    3.7698    4.1526 H   0  0  0  0  0  0  0  0  0  0  0  0
   -1.3194    3.1710    3.7854 H   0  0  0  0  0  0  0  0  0  0  0  0
  1  5  1  0
  5  8  1  0
  1  2  1  0
  1  3  1  0
  1  4  1  0
  5  6  1  0
  5  7  1  0
  8  9  1  0
  8 10  1  0
  8 11  1  0
 12 16  1  0
 16 17  1  0
 12 13  1  0
 12 14  1  0
 12 15  1  0
 17 18  1  0
 17 19  1  0
 17 20  1  0
M  CHG  1   8   1
M  END
>  <PDB_ID>  (442) 
pdb1kop

>  <RESIDUE_NAME>  (442) 
LYS   MET

>  <FRAG_NAME>  (442) 
ETAM   MSM

>  <FRAG_ATOM_NUM>  (442) 
fragi: 11  fragj: 9

>  <atom.prop.CHAIN_ID>  (442) 
A A A A A A A A A A A Z Z Z Z Z Z Z Z Z

>  <atom.prop.IS_HEAVY_ATOM>  (442) 
1 0 0 0 1 0 0 1 0 0 0 1 0 0 0 1 1 0 0 0

>  <DIFUSE_FUNC_ATOM>  (442) 
n/a

>  <FINAL_SINGLE_POINT_ENERGY>  (442) 
0

>  <NONCOV_INTER_ENERGY_QM>  (442) 
0

>  <FF_Energy>  (442) 
-4.27

>  <QM_Energy>  (442) 
-11.8

>  <source>  (442) 
ETAM_MSM

>  <Index>  (442) 
2494

$$$$
ETAM-pdb2p5d-A-LYS-43:MSM-pdb2p5d-A-MET-4
     RDKit          3D

 20 18  0  0  0  0  0  0  0  0999 V2000
    1.2510    0.8785   -0.0000 C   0  0  0  0  0  0  0  0  0  0  0  0
    2.0153    0.3344    0.3272 H   0  0  0  0  0  0  0  0  0  0  0  0
    1.0897    1.6516    0.6030 H   0  0  0  0  0  0  0  0  0  0  0  0
    1.4769    1.2462   -1.0009 H   0  0  0  0  0  0  0  0  0  0  0  0
    0.0000    0.0000    0.0000 C   0  0  0  0  0  0  0  0  0  0  0  0
    0.0156   -0.5821   -0.8164 H   0  0  0  0  0  0  0  0  0  0  0  0
    0.0145   -0.5824    0.8163 H   0  0  0  0  0  0  0  0  0  0  0  0
   -1.2510    0.8127   -0.0000 N   0  0  0  0  0  4  0  0  0  0  0  0
   -1.9121    0.4001    0.6247 H   0  0  0  0  0  0  0  0  0  0  0  0
   -1.0407    1.7423    0.2990 H   0  0  0  0  0  0  0  0  0  0  0  0
   -1.6300    0.8350   -0.9239 H   0  0  0  0  0  0  0  0  0  0  0  0
   -4.0763    3.5956   -2.5855 C   0  0  0  0  0  0  0  0  0  0  0  0
   -3.8796    4.2874   -1.8674 H   0  0  0  0  0  0  0  0  0  0  0  0
   -5.0317    3.7561   -2.8936 H   0  0  0  0  0  0  0  0  0  0  0  0
   -3.4002    3.7549   -3.4255 H   0  0  0  0  0  0  0  0  0  0  0  0
   -3.8894    1.9290   -1.9330 S   0  0  0  0  0  0  0  0  0  0  0  0
   -3.8480    0.9870   -3.4342 C   0  0  0  0  0  0  0  0  0  0  0  0
   -4.7546    0.9874   -3.8666 H   0  0  0  0  0  0  0  0  0  0  0  0
   -3.1836    1.3858   -4.0733 H   0  0  0  0  0  0  0  0  0  0  0  0
   -3.5816    0.0383   -3.2397 H   0  0  0  0  0  0  0  0  0  0  0  0
  1  5  1  0
  5  8  1  0
  1  2  1  0
  1  3  1  0
  1  4  1  0
  5  6  1  0
  5  7  1  0
  8  9  1  0
  8 10  1  0
  8 11  1  0
 12 16  1  0
 16 17  1  0
 12 13  1  0
 12 14  1  0
 12 15  1  0
 17 18  1  0
 17 19  1  0
 17 20  1  0
M  CHG  1   8   1
M  END
>  <PDB_ID>  (443) 
pdb2p5d

>  <RESIDUE_NAME>  (443) 
LYS   MET

>  <FRAG_NAME>  (443) 
ETAM   MSM

>  <FRAG_ATOM_NUM>  (443) 
fragi: 11  fragj: 9

>  <atom.prop.CHAIN_ID>  (443) 
A A A A A A A A A A A Z Z Z Z Z Z Z Z Z

>  <atom.prop.IS_HEAVY_ATOM>  (443) 
1 0 0 0 1 0 0 1 0 0 0 1 0 0 0 1 1 0 0 0

>  <DIFUSE_FUNC_ATOM>  (443) 
n/a

>  <FINAL_SINGLE_POINT_ENERGY>  (443) 
0

>  <NONCOV_INTER_ENERGY_QM>  (443) 
0

>  <FF_Energy>  (443) 
-5.03

>  <QM_Energy>  (443) 
-13.27

>  <source>  (443) 
ETAM_MSM

>  <Index>  (443) 
2495

$$$$
ETAM-pdb2oqy-H-LYS-190:MSM-pdb2oqy-H-MET-219
     RDKit          3D

 20 18  0  0  0  0  0  0  0  0999 V2000
    1.2499    0.8636   -0.0000 C   0  0  0  0  0  0  0  0  0  0  0  0
    1.3381    1.2978    0.8895 H   0  0  0  0  0  0  0  0  0  0  0  0
    1.1637    1.5481   -0.7148 H   0  0  0  0  0  0  0  0  0  0  0  0
    2.1425    0.2674   -0.1889 H   0  0  0  0  0  0  0  0  0  0  0  0
    0.0000    0.0000    0.0000 C   0  0  0  0  0  0  0  0  0  0  0  0
    0.0117   -0.5887   -0.8163 H   0  0  0  0  0  0  0  0  0  0  0  0
    0.0117   -0.5895    0.8159 H   0  0  0  0  0  0  0  0  0  0  0  0
   -1.2499    0.8066    0.0000 N   0  0  0  0  0  4  0  0  0  0  0  0
   -1.1458    1.5797    0.6255 H   0  0  0  0  0  0  0  0  0  0  0  0
   -1.4269    1.1448   -0.9237 H   0  0  0  0  0  0  0  0  0  0  0  0
   -2.0138    0.2353    0.2990 H   0  0  0  0  0  0  0  0  0  0  0  0
   -0.0823    4.2382    2.7846 C   0  0  0  0  0  0  0  0  0  0  0  0
    0.7913    3.8105    2.4329 H   0  0  0  0  0  0  0  0  0  0  0  0
   -0.2760    3.7333    3.6661 H   0  0  0  0  0  0  0  0  0  0  0  0
    0.1461    5.2713    3.0468 H   0  0  0  0  0  0  0  0  0  0  0  0
   -1.4374    4.0136    1.5965 S   0  0  0  0  0  0  0  0  0  0  0  0
   -0.5803    4.5134    0.0775 C   0  0  0  0  0  0  0  0  0  0  0  0
   -1.1366    5.1884   -0.4012 H   0  0  0  0  0  0  0  0  0  0  0  0
    0.3026    4.9087    0.3187 H   0  0  0  0  0  0  0  0  0  0  0  0
   -0.4476    3.7106   -0.4996 H   0  0  0  0  0  0  0  0  0  0  0  0
  1  5  1  0
  5  8  1  0
  1  2  1  0
  1  3  1  0
  1  4  1  0
  5  6  1  0
  5  7  1  0
  8  9  1  0
  8 10  1  0
  8 11  1  0
 12 16  1  0
 16 17  1  0
 12 13  1  0
 12 14  1  0
 12 15  1  0
 17 18  1  0
 17 19  1  0
 17 20  1  0
M  CHG  1   8   1
M  END
>  <PDB_ID>  (444) 
pdb2oqy

>  <RESIDUE_NAME>  (444) 
LYS   MET

>  <FRAG_NAME>  (444) 
ETAM   MSM

>  <FRAG_ATOM_NUM>  (444) 
fragi: 11  fragj: 9

>  <atom.prop.CHAIN_ID>  (444) 
A A A A A A A A A A A Z Z Z Z Z Z Z Z Z

>  <atom.prop.IS_HEAVY_ATOM>  (444) 
1 0 0 0 1 0 0 1 0 0 0 1 0 0 0 1 1 0 0 0

>  <DIFUSE_FUNC_ATOM>  (444) 
n/a

>  <FINAL_SINGLE_POINT_ENERGY>  (444) 
0

>  <NONCOV_INTER_ENERGY_QM>  (444) 
0

>  <FF_Energy>  (444) 
-4.48

>  <QM_Energy>  (444) 
-12.65

>  <source>  (444) 
ETAM_MSM

>  <Index>  (444) 
2500

$$$$
ETAM-pdb1knz-B-LYS-66:MSM-pdb1knz-A-MET-10
     RDKit          3D

 20 18  0  0  0  0  0  0  0  0999 V2000
    1.2285    0.8881   -0.0000 C   0  0  0  0  0  0  0  0  0  0  0  0
    1.3518    1.2646    0.9135 H   0  0  0  0  0  0  0  0  0  0  0  0
    1.0942    1.6220   -0.6593 H   0  0  0  0  0  0  0  0  0  0  0  0
    2.1272    0.3348   -0.2722 H   0  0  0  0  0  0  0  0  0  0  0  0
    0.0000    0.0000    0.0000 C   0  0  0  0  0  0  0  0  0  0  0  0
    0.0142   -0.5740   -0.8161 H   0  0  0  0  0  0  0  0  0  0  0  0
    0.0138   -0.5751    0.8164 H   0  0  0  0  0  0  0  0  0  0  0  0
   -1.2285    0.8263   -0.0000 N   0  0  0  0  0  4  0  0  0  0  0  0
   -1.8272    0.5378   -0.7490 H   0  0  0  0  0  0  0  0  0  0  0  0
   -1.7088    0.7137    0.8709 H   0  0  0  0  0  0  0  0  0  0  0  0
   -0.9849    1.7896   -0.1223 H   0  0  0  0  0  0  0  0  0  0  0  0
   -2.6305    0.2903    5.3412 C   0  0  0  0  0  0  0  0  0  0  0  0
   -2.9765   -0.4307    5.9714 H   0  0  0  0  0  0  0  0  0  0  0  0
   -3.4121    0.5516    4.7419 H   0  0  0  0  0  0  0  0  0  0  0  0
   -2.3233    1.1573    5.9259 H   0  0  0  0  0  0  0  0  0  0  0  0
   -1.2572   -0.3418    4.3497 S   0  0  0  0  0  0  0  0  0  0  0  0
   -1.5680    0.4916    2.8752 C   0  0  0  0  0  0  0  0  0  0  0  0
   -0.9228    0.2094    2.1473 H   0  0  0  0  0  0  0  0  0  0  0  0
   -2.5056    0.3097    2.5374 H   0  0  0  0  0  0  0  0  0  0  0  0
   -1.4765    1.4942    2.9905 H   0  0  0  0  0  0  0  0  0  0  0  0
  1  5  1  0
  5  8  1  0
  1  2  1  0
  1  3  1  0
  1  4  1  0
  5  6  1  0
  5  7  1  0
  8  9  1  0
  8 10  1  0
  8 11  1  0
 12 16  1  0
 16 17  1  0
 12 13  1  0
 12 14  1  0
 12 15  1  0
 17 18  1  0
 17 19  1  0
 17 20  1  0
M  CHG  1   8   1
M  END
>  <PDB_ID>  (445) 
pdb1knz

>  <RESIDUE_NAME>  (445) 
LYS   MET

>  <FRAG_NAME>  (445) 
ETAM   MSM

>  <FRAG_ATOM_NUM>  (445) 
fragi: 11  fragj: 9

>  <atom.prop.CHAIN_ID>  (445) 
A A A A A A A A A A A Z Z Z Z Z Z Z Z Z

>  <atom.prop.IS_HEAVY_ATOM>  (445) 
1 0 0 0 1 0 0 1 0 0 0 1 0 0 0 1 1 0 0 0

>  <DIFUSE_FUNC_ATOM>  (445) 
n/a

>  <FINAL_SINGLE_POINT_ENERGY>  (445) 
0

>  <NONCOV_INTER_ENERGY_QM>  (445) 
0

>  <FF_Energy>  (445) 
12.44

>  <QM_Energy>  (445) 
3.29

>  <source>  (445) 
ETAM_MSM

>  <Index>  (445) 
2501

$$$$
ETAM-pdb1knz-D-LYS-66:MSM-pdb1knz-C-MET-10
     RDKit          3D

 20 18  0  0  0  0  0  0  0  0999 V2000
    1.2333    0.8792   -0.0000 C   0  0  0  0  0  0  0  0  0  0  0  0
    1.4126    1.1782    0.9280 H   0  0  0  0  0  0  0  0  0  0  0  0
    1.0730    1.6538   -0.5972 H   0  0  0  0  0  0  0  0  0  0  0  0
    2.0970    0.3231   -0.3646 H   0  0  0  0  0  0  0  0  0  0  0  0
    0.0000    0.0000    0.0000 C   0  0  0  0  0  0  0  0  0  0  0  0
    0.0153   -0.5817   -0.8161 H   0  0  0  0  0  0  0  0  0  0  0  0
    0.0155   -0.5816    0.8165 H   0  0  0  0  0  0  0  0  0  0  0  0
   -1.2333    0.8129   -0.0000 N   0  0  0  0  0  4  0  0  0  0  0  0
   -1.0965    1.6333    0.5575 H   0  0  0  0  0  0  0  0  0  0  0  0
   -1.4584    1.0841   -0.9378 H   0  0  0  0  0  0  0  0  0  0  0  0
   -1.9901    0.2779    0.3800 H   0  0  0  0  0  0  0  0  0  0  0  0
   -2.2504    0.3198    5.5393 C   0  0  0  0  0  0  0  0  0  0  0  0
   -2.6088   -0.3703    6.1877 H   0  0  0  0  0  0  0  0  0  0  0  0
   -3.0199    0.6131    4.9502 H   0  0  0  0  0  0  0  0  0  0  0  0
   -1.8756    1.1780    6.0971 H   0  0  0  0  0  0  0  0  0  0  0  0
   -0.9204   -0.3660    4.5529 S   0  0  0  0  0  0  0  0  0  0  0  0
   -1.1592    0.5410    3.0740 C   0  0  0  0  0  0  0  0  0  0  0  0
   -0.4782    0.2753    2.3801 H   0  0  0  0  0  0  0  0  0  0  0  0
   -2.0782    0.3702    2.6963 H   0  0  0  0  0  0  0  0  0  0  0  0
   -1.0674    1.5298    3.2441 H   0  0  0  0  0  0  0  0  0  0  0  0
  1  5  1  0
  5  8  1  0
  1  2  1  0
  1  3  1  0
  1  4  1  0
  5  6  1  0
  5  7  1  0
  8  9  1  0
  8 10  1  0
  8 11  1  0
 12 16  1  0
 16 17  1  0
 12 13  1  0
 12 14  1  0
 12 15  1  0
 17 18  1  0
 17 19  1  0
 17 20  1  0
M  CHG  1   8   1
M  END
>  <PDB_ID>  (446) 
pdb1knz

>  <RESIDUE_NAME>  (446) 
LYS   MET

>  <FRAG_NAME>  (446) 
ETAM   MSM

>  <FRAG_ATOM_NUM>  (446) 
fragi: 11  fragj: 9

>  <atom.prop.CHAIN_ID>  (446) 
A A A A A A A A A A A Z Z Z Z Z Z Z Z Z

>  <atom.prop.IS_HEAVY_ATOM>  (446) 
1 0 0 0 1 0 0 1 0 0 0 1 0 0 0 1 1 0 0 0

>  <DIFUSE_FUNC_ATOM>  (446) 
n/a

>  <FINAL_SINGLE_POINT_ENERGY>  (446) 
0

>  <NONCOV_INTER_ENERGY_QM>  (446) 
0

>  <FF_Energy>  (446) 
6.13

>  <QM_Energy>  (446) 
0.38

>  <source>  (446) 
ETAM_MSM

>  <Index>  (446) 
2508

$$$$
ETAM-pdb1l4i-A-LYS-112:MSM-pdb1l4i-A-MET-166
     RDKit          3D

 20 18  0  0  0  0  0  0  0  0999 V2000
    1.2006    0.9459   -0.0000 C   0  0  0  0  0  0  0  0  0  0  0  0
    1.8738    0.5944    0.6235 H   0  0  0  0  0  0  0  0  0  0  0  0
    0.8899    1.8440    0.2512 H   0  0  0  0  0  0  0  0  0  0  0  0
    1.6197    0.9754   -1.0058 H   0  0  0  0  0  0  0  0  0  0  0  0
    0.0000    0.0000    0.0000 C   0  0  0  0  0  0  0  0  0  0  0  0
    0.0034   -0.5271   -0.8160 H   0  0  0  0  0  0  0  0  0  0  0  0
    0.0026   -0.5267    0.8162 H   0  0  0  0  0  0  0  0  0  0  0  0
   -1.2006    0.9113   -0.0000 N   0  0  0  0  0  4  0  0  0  0  0  0
   -1.3071    1.3035   -0.9098 H   0  0  0  0  0  0  0  0  0  0  0  0
   -2.0088    0.3795    0.2404 H   0  0  0  0  0  0  0  0  0  0  0  0
   -1.0556    1.6347    0.6693 H   0  0  0  0  0  0  0  0  0  0  0  0
   -0.6632    3.7260    4.1232 C   0  0  0  0  0  0  0  0  0  0  0  0
   -0.0958    4.2577    4.7933 H   0  0  0  0  0  0  0  0  0  0  0  0
   -0.9147    2.8569    4.6077 H   0  0  0  0  0  0  0  0  0  0  0  0
   -1.5779    4.2869    3.9316 H   0  0  0  0  0  0  0  0  0  0  0  0
    0.2851    3.3704    2.6214 S   0  0  0  0  0  0  0  0  0  0  0  0
    0.3376    5.0515    1.9428 C   0  0  0  0  0  0  0  0  0  0  0  0
   -0.5954    5.3709    1.7933 H   0  0  0  0  0  0  0  0  0  0  0  0
    0.8016    5.6496    2.5919 H   0  0  0  0  0  0  0  0  0  0  0  0
    0.8348    5.0371    1.0784 H   0  0  0  0  0  0  0  0  0  0  0  0
  1  5  1  0
  5  8  1  0
  1  2  1  0
  1  3  1  0
  1  4  1  0
  5  6  1  0
  5  7  1  0
  8  9  1  0
  8 10  1  0
  8 11  1  0
 12 16  1  0
 16 17  1  0
 12 13  1  0
 12 14  1  0
 12 15  1  0
 17 18  1  0
 17 19  1  0
 17 20  1  0
M  CHG  1   8   1
M  END
>  <PDB_ID>  (447) 
pdb1l4i

>  <RESIDUE_NAME>  (447) 
LYS   MET

>  <FRAG_NAME>  (447) 
ETAM   MSM

>  <FRAG_ATOM_NUM>  (447) 
fragi: 11  fragj: 9

>  <atom.prop.CHAIN_ID>  (447) 
A A A A A A A A A A A Z Z Z Z Z Z Z Z Z

>  <atom.prop.IS_HEAVY_ATOM>  (447) 
1 0 0 0 1 0 0 1 0 0 0 1 0 0 0 1 1 0 0 0

>  <DIFUSE_FUNC_ATOM>  (447) 
n/a

>  <FINAL_SINGLE_POINT_ENERGY>  (447) 
0

>  <NONCOV_INTER_ENERGY_QM>  (447) 
0

>  <FF_Energy>  (447) 
-4.8

>  <QM_Energy>  (447) 
-13.08

>  <source>  (447) 
ETAM_MSM

>  <Index>  (447) 
2565

$$$$
ETAM-pdb2pby-C-LYS-87:MSM-pdb2pby-C-MET-125
     RDKit          3D

 20 18  0  0  0  0  0  0  0  0999 V2000
    1.2866    0.8142    0.0000 C   0  0  0  0  0  0  0  0  0  0  0  0
    1.4234    1.1768    0.9129 H   0  0  0  0  0  0  0  0  0  0  0  0
    1.1890    1.5477   -0.6598 H   0  0  0  0  0  0  0  0  0  0  0  0
    2.1304    0.1812   -0.2745 H   0  0  0  0  0  0  0  0  0  0  0  0
    0.0000    0.0000    0.0000 C   0  0  0  0  0  0  0  0  0  0  0  0
   -0.0209   -0.5940   -0.8164 H   0  0  0  0  0  0  0  0  0  0  0  0
   -0.0209   -0.5947    0.8167 H   0  0  0  0  0  0  0  0  0  0  0  0
   -1.2866    0.8397   -0.0000 N   0  0  0  0  0  4  0  0  0  0  0  0
   -1.2194    1.5045   -0.7322 H   0  0  0  0  0  0  0  0  0  0  0  0
   -2.0532    0.2281   -0.1477 H   0  0  0  0  0  0  0  0  0  0  0  0
   -1.3598    1.2900    0.8807 H   0  0  0  0  0  0  0  0  0  0  0  0
   -2.1623    0.0333    3.1334 C   0  0  0  0  0  0  0  0  0  0  0  0
   -2.3514    0.5507    2.2820 H   0  0  0  0  0  0  0  0  0  0  0  0
   -1.6865    0.6649    3.7692 H   0  0  0  0  0  0  0  0  0  0  0  0
   -3.1122   -0.2610    3.5798 H   0  0  0  0  0  0  0  0  0  0  0  0
   -1.1395   -1.4213    2.7880 S   0  0  0  0  0  0  0  0  0  0  0  0
   -1.9712   -2.0479    1.3284 C   0  0  0  0  0  0  0  0  0  0  0  0
   -2.4997   -2.8626    1.5686 H   0  0  0  0  0  0  0  0  0  0  0  0
   -2.5866   -1.3464    0.9673 H   0  0  0  0  0  0  0  0  0  0  0  0
   -1.2926   -2.2858    0.6319 H   0  0  0  0  0  0  0  0  0  0  0  0
  1  5  1  0
  5  8  1  0
  1  2  1  0
  1  3  1  0
  1  4  1  0
  5  6  1  0
  5  7  1  0
  8  9  1  0
  8 10  1  0
  8 11  1  0
 12 16  1  0
 16 17  1  0
 12 13  1  0
 12 14  1  0
 12 15  1  0
 17 18  1  0
 17 19  1  0
 17 20  1  0
M  CHG  1   8   1
M  END
>  <PDB_ID>  (448) 
pdb2pby

>  <RESIDUE_NAME>  (448) 
LYS   MET

>  <FRAG_NAME>  (448) 
ETAM   MSM

>  <FRAG_ATOM_NUM>  (448) 
fragi: 11  fragj: 9

>  <atom.prop.CHAIN_ID>  (448) 
A A A A A A A A A A A Z Z Z Z Z Z Z Z Z

>  <atom.prop.IS_HEAVY_ATOM>  (448) 
1 0 0 0 1 0 0 1 0 0 0 1 0 0 0 1 1 0 0 0

>  <DIFUSE_FUNC_ATOM>  (448) 
n/a

>  <FINAL_SINGLE_POINT_ENERGY>  (448) 
0

>  <NONCOV_INTER_ENERGY_QM>  (448) 
0

>  <FF_Energy>  (448) 
7.9

>  <QM_Energy>  (448) 
-1.57

>  <source>  (448) 
ETAM_MSM

>  <Index>  (448) 
2576

$$$$
ETAM-pdb2pfm-B-LYS-155:MSM-pdb2pfm-B-MET-138
     RDKit          3D

 20 18  0  0  0  0  0  0  0  0999 V2000
    1.2392    0.9260    0.0000 C   0  0  0  0  0  0  0  0  0  0  0  0
    2.0271    0.4059    0.3211 H   0  0  0  0  0  0  0  0  0  0  0  0
    1.0647    1.6932    0.6129 H   0  0  0  0  0  0  0  0  0  0  0  0
    1.4896    1.3347   -0.9790 H   0  0  0  0  0  0  0  0  0  0  0  0
    0.0000    0.0000    0.0000 C   0  0  0  0  0  0  0  0  0  0  0  0
    0.0265   -0.5600   -0.8159 H   0  0  0  0  0  0  0  0  0  0  0  0
    0.0261   -0.5595    0.8159 H   0  0  0  0  0  0  0  0  0  0  0  0
   -1.2392    0.8324    0.0000 N   0  0  0  0  0  4  0  0  0  0  0  0
   -1.8090    0.5745   -0.7794 H   0  0  0  0  0  0  0  0  0  0  0  0
   -1.7405    0.6765    0.8499 H   0  0  0  0  0  0  0  0  0  0  0  0
   -0.9886    1.7966   -0.0705 H   0  0  0  0  0  0  0  0  0  0  0  0
    0.6790   -4.8996    0.8903 C   0  0  0  0  0  0  0  0  0  0  0  0
    0.9514   -5.2816   -0.0277 H   0  0  0  0  0  0  0  0  0  0  0  0
   -0.3281   -4.6994    0.8015 H   0  0  0  0  0  0  0  0  0  0  0  0
    0.8178   -5.6727    1.6460 H   0  0  0  0  0  0  0  0  0  0  0  0
    1.5942   -3.3794    1.2355 S   0  0  0  0  0  0  0  0  0  0  0  0
    1.5145   -2.7213   -0.3830 C   0  0  0  0  0  0  0  0  0  0  0  0
    0.8222   -1.9900   -0.4377 H   0  0  0  0  0  0  0  0  0  0  0  0
    2.4040   -2.3325   -0.6545 H   0  0  0  0  0  0  0  0  0  0  0  0
    1.2677   -3.4381   -1.0477 H   0  0  0  0  0  0  0  0  0  0  0  0
  1  5  1  0
  5  8  1  0
  1  2  1  0
  1  3  1  0
  1  4  1  0
  5  6  1  0
  5  7  1  0
  8  9  1  0
  8 10  1  0
  8 11  1  0
 12 16  1  0
 16 17  1  0
 12 13  1  0
 12 14  1  0
 12 15  1  0
 17 18  1  0
 17 19  1  0
 17 20  1  0
M  CHG  1   8   1
M  END
>  <PDB_ID>  (449) 
pdb2pfm

>  <RESIDUE_NAME>  (449) 
LYS   MET

>  <FRAG_NAME>  (449) 
ETAM   MSM

>  <FRAG_ATOM_NUM>  (449) 
fragi: 11  fragj: 9

>  <atom.prop.CHAIN_ID>  (449) 
A A A A A A A A A A A Z Z Z Z Z Z Z Z Z

>  <atom.prop.IS_HEAVY_ATOM>  (449) 
1 0 0 0 1 0 0 1 0 0 0 1 0 0 0 1 1 0 0 0

>  <DIFUSE_FUNC_ATOM>  (449) 
n/a

>  <FINAL_SINGLE_POINT_ENERGY>  (449) 
0

>  <NONCOV_INTER_ENERGY_QM>  (449) 
0

>  <FF_Energy>  (449) 
12.36

>  <QM_Energy>  (449) 
1.09

>  <source>  (449) 
ETAM_MSM

>  <Index>  (449) 
2579

$$$$
ETAM-pdb1l7a-A-LYS-270:MSM-pdb1l7a-A-MET-1
     RDKit          3D

 20 18  0  0  0  0  0  0  0  0999 V2000
    1.2289    0.8925    0.0000 C   0  0  0  0  0  0  0  0  0  0  0  0
    1.2191    1.4449    0.8155 H   0  0  0  0  0  0  0  0  0  0  0  0
    1.2213    1.4417   -0.8178 H   0  0  0  0  0  0  0  0  0  0  0  0
    2.1208    0.2659    0.0026 H   0  0  0  0  0  0  0  0  0  0  0  0
    0.0000    0.0000    0.0000 C   0  0  0  0  0  0  0  0  0  0  0  0
    0.0106   -0.5686   -0.8159 H   0  0  0  0  0  0  0  0  0  0  0  0
    0.0096   -0.5684    0.8163 H   0  0  0  0  0  0  0  0  0  0  0  0
   -1.2289    0.8394   -0.0000 N   0  0  0  0  0  4  0  0  0  0  0  0
   -1.9653    0.3486    0.4657 H   0  0  0  0  0  0  0  0  0  0  0  0
   -1.0439    1.6982    0.4773 H   0  0  0  0  0  0  0  0  0  0  0  0
   -1.4991    1.0323   -0.9430 H   0  0  0  0  0  0  0  0  0  0  0  0
   -3.8513    2.0852    2.7574 C   0  0  0  0  0  0  0  0  0  0  0  0
   -4.1509    1.2037    2.2661 H   0  0  0  0  0  0  0  0  0  0  0  0
   -4.6901    2.2886    3.3609 H   0  0  0  0  0  0  0  0  0  0  0  0
   -3.0192    1.8343    3.4152 H   0  0  0  0  0  0  0  0  0  0  0  0
   -3.6114    3.4151    1.5579 S   0  0  0  0  0  0  0  0  0  0  0  0
   -5.0408    3.1349    0.5117 C   0  0  0  0  0  0  0  0  0  0  0  0
   -5.5317    3.9964    0.3770 H   0  0  0  0  0  0  0  0  0  0  0  0
   -4.7417    2.7806   -0.3748 H   0  0  0  0  0  0  0  0  0  0  0  0
   -5.6494    2.4704    0.9479 H   0  0  0  0  0  0  0  0  0  0  0  0
  1  5  1  0
  5  8  1  0
  1  2  1  0
  1  3  1  0
  1  4  1  0
  5  6  1  0
  5  7  1  0
  8  9  1  0
  8 10  1  0
  8 11  1  0
 12 16  1  0
 16 17  1  0
 12 13  1  0
 12 14  1  0
 12 15  1  0
 17 18  1  0
 17 19  1  0
 17 20  1  0
M  CHG  1   8   1
M  END
>  <PDB_ID>  (450) 
pdb1l7a

>  <RESIDUE_NAME>  (450) 
LYS   MET

>  <FRAG_NAME>  (450) 
ETAM   MSM

>  <FRAG_ATOM_NUM>  (450) 
fragi: 11  fragj: 9

>  <atom.prop.CHAIN_ID>  (450) 
A A A A A A A A A A A Z Z Z Z Z Z Z Z Z

>  <atom.prop.IS_HEAVY_ATOM>  (450) 
1 0 0 0 1 0 0 1 0 0 0 1 0 0 0 1 1 0 0 0

>  <DIFUSE_FUNC_ATOM>  (450) 
n/a

>  <FINAL_SINGLE_POINT_ENERGY>  (450) 
0

>  <NONCOV_INTER_ENERGY_QM>  (450) 
0

>  <FF_Energy>  (450) 
-3.24

>  <QM_Energy>  (450) 
-8.68

>  <source>  (450) 
ETAM_MSM

>  <Index>  (450) 
2583

$$$$
ETAM-pdb1l7a-B-LYS-270:MSM-pdb1l7a-B-MET-1
     RDKit          3D

 20 18  0  0  0  0  0  0  0  0999 V2000
    1.2256    0.9063    0.0000 C   0  0  0  0  0  0  0  0  0  0  0  0
    1.2161    1.4478    0.8140 H   0  0  0  0  0  0  0  0  0  0  0  0
    1.2224    1.4388   -0.8191 H   0  0  0  0  0  0  0  0  0  0  0  0
    2.1042    0.2614    0.0077 H   0  0  0  0  0  0  0  0  0  0  0  0
    0.0000    0.0000    0.0000 C   0  0  0  0  0  0  0  0  0  0  0  0
    0.0111   -0.5598   -0.8159 H   0  0  0  0  0  0  0  0  0  0  0  0
    0.0103   -0.5597    0.8165 H   0  0  0  0  0  0  0  0  0  0  0  0
   -1.2256    0.8517    0.0000 N   0  0  0  0  0  4  0  0  0  0  0  0
   -1.4596    1.0924   -0.9405 H   0  0  0  0  0  0  0  0  0  0  0  0
   -1.9793    0.3439    0.4149 H   0  0  0  0  0  0  0  0  0  0  0  0
   -1.0496    1.6825    0.5262 H   0  0  0  0  0  0  0  0  0  0  0  0
   -3.0155    1.1459    2.5709 C   0  0  0  0  0  0  0  0  0  0  0  0
   -2.2623    1.0324    1.8415 H   0  0  0  0  0  0  0  0  0  0  0  0
   -3.6349    0.3184    2.3625 H   0  0  0  0  0  0  0  0  0  0  0  0
   -2.5557    0.9750    3.5443 H   0  0  0  0  0  0  0  0  0  0  0  0
   -3.9181    2.6850    2.3048 S   0  0  0  0  0  0  0  0  0  0  0  0
   -2.6443    3.8749    2.7315 C   0  0  0  0  0  0  0  0  0  0  0  0
   -2.0164    3.9823    1.9603 H   0  0  0  0  0  0  0  0  0  0  0  0
   -3.0677    4.7567    2.9420 H   0  0  0  0  0  0  0  0  0  0  0  0
   -2.1375    3.5493    3.5304 H   0  0  0  0  0  0  0  0  0  0  0  0
  1  5  1  0
  5  8  1  0
  1  2  1  0
  1  3  1  0
  1  4  1  0
  5  6  1  0
  5  7  1  0
  8  9  1  0
  8 10  1  0
  8 11  1  0
 12 16  1  0
 16 17  1  0
 12 13  1  0
 12 14  1  0
 12 15  1  0
 17 18  1  0
 17 19  1  0
 17 20  1  0
M  CHG  1   8   1
M  END
>  <PDB_ID>  (451) 
pdb1l7a

>  <RESIDUE_NAME>  (451) 
LYS   MET

>  <FRAG_NAME>  (451) 
ETAM   MSM

>  <FRAG_ATOM_NUM>  (451) 
fragi: 11  fragj: 9

>  <atom.prop.CHAIN_ID>  (451) 
A A A A A A A A A A A Z Z Z Z Z Z Z Z Z

>  <atom.prop.IS_HEAVY_ATOM>  (451) 
1 0 0 0 1 0 0 1 0 0 0 1 0 0 0 1 1 0 0 0

>  <DIFUSE_FUNC_ATOM>  (451) 
n/a

>  <FINAL_SINGLE_POINT_ENERGY>  (451) 
0

>  <NONCOV_INTER_ENERGY_QM>  (451) 
0

>  <FF_Energy>  (451) 
9.36

>  <QM_Energy>  (451) 
2.5

>  <source>  (451) 
ETAM_MSM

>  <Index>  (451) 
2585

$$$$
ETAM-pdb2pfz-A-LYS-215:MSM-pdb2pfz-A-MET-113
     RDKit          3D

 20 18  0  0  0  0  0  0  0  0999 V2000
    1.2426    0.8917   -0.0000 C   0  0  0  0  0  0  0  0  0  0  0  0
    1.1378    1.5816    0.7170 H   0  0  0  0  0  0  0  0  0  0  0  0
    1.3066    1.3446   -0.8894 H   0  0  0  0  0  0  0  0  0  0  0  0
    2.1689    0.3458    0.1785 H   0  0  0  0  0  0  0  0  0  0  0  0
    0.0000    0.0000    0.0000 C   0  0  0  0  0  0  0  0  0  0  0  0
   -0.0217   -0.5423   -0.8162 H   0  0  0  0  0  0  0  0  0  0  0  0
   -0.0224   -0.5423    0.8161 H   0  0  0  0  0  0  0  0  0  0  0  0
   -1.2426    0.9190    0.0000 N   0  0  0  0  0  4  0  0  0  0  0  0
   -1.5900    0.9585   -0.9269 H   0  0  0  0  0  0  0  0  0  0  0  0
   -1.9114    0.5240    0.6151 H   0  0  0  0  0  0  0  0  0  0  0  0
   -0.9570    1.8142    0.3113 H   0  0  0  0  0  0  0  0  0  0  0  0
    1.0716    1.3628   -3.0628 C   0  0  0  0  0  0  0  0  0  0  0  0
    0.2057    1.2851   -2.5118 H   0  0  0  0  0  0  0  0  0  0  0  0
    1.7657    0.8035   -2.5462 H   0  0  0  0  0  0  0  0  0  0  0  0
    0.9159    0.9325   -4.0521 H   0  0  0  0  0  0  0  0  0  0  0  0
    1.5989    3.0764   -3.1459 S   0  0  0  0  0  0  0  0  0  0  0  0
    0.5417    3.6638   -4.4772 C   0  0  0  0  0  0  0  0  0  0  0  0
    0.2935    4.6174   -4.3075 H   0  0  0  0  0  0  0  0  0  0  0  0
    1.0324    3.5955   -5.3463 H   0  0  0  0  0  0  0  0  0  0  0  0
   -0.2857    3.1044   -4.5156 H   0  0  0  0  0  0  0  0  0  0  0  0
  1  5  1  0
  5  8  1  0
  1  2  1  0
  1  3  1  0
  1  4  1  0
  5  6  1  0
  5  7  1  0
  8  9  1  0
  8 10  1  0
  8 11  1  0
 12 16  1  0
 16 17  1  0
 12 13  1  0
 12 14  1  0
 12 15  1  0
 17 18  1  0
 17 19  1  0
 17 20  1  0
M  CHG  1   8   1
M  END
>  <PDB_ID>  (452) 
pdb2pfz

>  <RESIDUE_NAME>  (452) 
LYS   MET

>  <FRAG_NAME>  (452) 
ETAM   MSM

>  <FRAG_ATOM_NUM>  (452) 
fragi: 11  fragj: 9

>  <atom.prop.CHAIN_ID>  (452) 
A A A A A A A A A A A Z Z Z Z Z Z Z Z Z

>  <atom.prop.IS_HEAVY_ATOM>  (452) 
1 0 0 0 1 0 0 1 0 0 0 1 0 0 0 1 1 0 0 0

>  <DIFUSE_FUNC_ATOM>  (452) 
n/a

>  <FINAL_SINGLE_POINT_ENERGY>  (452) 
0

>  <NONCOV_INTER_ENERGY_QM>  (452) 
0

>  <FF_Energy>  (452) 
11.62

>  <QM_Energy>  (452) 
1.16

>  <source>  (452) 
ETAM_MSM

>  <Index>  (452) 
2590

$$$$
ETAM-pdb2pgg-A-LYS-523:MSM-pdb2pgg-A-MET-507
     RDKit          3D

 20 18  0  0  0  0  0  0  0  0999 V2000
    1.2465    0.8687   -0.0000 C   0  0  0  0  0  0  0  0  0  0  0  0
    1.2224    1.4601    0.7920 H   0  0  0  0  0  0  0  0  0  0  0  0
    1.2711    1.3902   -0.8395 H   0  0  0  0  0  0  0  0  0  0  0  0
    2.1373    0.2428    0.0538 H   0  0  0  0  0  0  0  0  0  0  0  0
    0.0000    0.0000    0.0000 C   0  0  0  0  0  0  0  0  0  0  0  0
    0.0155   -0.5890   -0.8159 H   0  0  0  0  0  0  0  0  0  0  0  0
    0.0146   -0.5889    0.8163 H   0  0  0  0  0  0  0  0  0  0  0  0
   -1.2465    0.8023   -0.0000 N   0  0  0  0  0  4  0  0  0  0  0  0
   -1.0181    1.7746    0.0646 H   0  0  0  0  0  0  0  0  0  0  0  0
   -1.7523    0.6353   -0.8472 H   0  0  0  0  0  0  0  0  0  0  0  0
   -1.8130    0.5404    0.7824 H   0  0  0  0  0  0  0  0  0  0  0  0
   -3.0151    4.0125    1.0939 C   0  0  0  0  0  0  0  0  0  0  0  0
   -3.2262    3.4183    0.2982 H   0  0  0  0  0  0  0  0  0  0  0  0
   -2.3346    4.6985    0.7802 H   0  0  0  0  0  0  0  0  0  0  0  0
   -3.9243    4.5285    1.4026 H   0  0  0  0  0  0  0  0  0  0  0  0
   -2.3752    3.0527    2.4565 S   0  0  0  0  0  0  0  0  0  0  0  0
   -3.4027    1.5805    2.2753 C   0  0  0  0  0  0  0  0  0  0  0  0
   -2.8262    0.7676    2.3357 H   0  0  0  0  0  0  0  0  0  0  0  0
   -4.0860    1.5642    3.0041 H   0  0  0  0  0  0  0  0  0  0  0  0
   -3.8592    1.6044    1.3870 H   0  0  0  0  0  0  0  0  0  0  0  0
  1  5  1  0
  5  8  1  0
  1  2  1  0
  1  3  1  0
  1  4  1  0
  5  6  1  0
  5  7  1  0
  8  9  1  0
  8 10  1  0
  8 11  1  0
 12 16  1  0
 16 17  1  0
 12 13  1  0
 12 14  1  0
 12 15  1  0
 17 18  1  0
 17 19  1  0
 17 20  1  0
M  CHG  1   8   1
M  END
>  <PDB_ID>  (453) 
pdb2pgg

>  <RESIDUE_NAME>  (453) 
LYS   MET

>  <FRAG_NAME>  (453) 
ETAM   MSM

>  <FRAG_ATOM_NUM>  (453) 
fragi: 11  fragj: 9

>  <atom.prop.CHAIN_ID>  (453) 
A A A A A A A A A A A Z Z Z Z Z Z Z Z Z

>  <atom.prop.IS_HEAVY_ATOM>  (453) 
1 0 0 0 1 0 0 1 0 0 0 1 0 0 0 1 1 0 0 0

>  <DIFUSE_FUNC_ATOM>  (453) 
n/a

>  <FINAL_SINGLE_POINT_ENERGY>  (453) 
0

>  <NONCOV_INTER_ENERGY_QM>  (453) 
0

>  <FF_Energy>  (453) 
-1.87

>  <QM_Energy>  (453) 
-7.13

>  <source>  (453) 
ETAM_MSM

>  <Index>  (453) 
2592

$$$$
ETAM-pdb1l9m-A-LYS-496:MSM-pdb1l9m-A-MET-491
     RDKit          3D

 20 18  0  0  0  0  0  0  0  0999 V2000
    1.2339    0.8816    0.0000 C   0  0  0  0  0  0  0  0  0  0  0  0
    1.2086    1.4637    0.8073 H   0  0  0  0  0  0  0  0  0  0  0  0
    1.2274    1.4360   -0.8260 H   0  0  0  0  0  0  0  0  0  0  0  0
    2.1470    0.2867    0.0214 H   0  0  0  0  0  0  0  0  0  0  0  0
    0.0000    0.0000    0.0000 C   0  0  0  0  0  0  0  0  0  0  0  0
    0.0113   -0.5764   -0.8159 H   0  0  0  0  0  0  0  0  0  0  0  0
    0.0105   -0.5771    0.8162 H   0  0  0  0  0  0  0  0  0  0  0  0
   -1.2339    0.8268   -0.0000 N   0  0  0  0  0  4  0  0  0  0  0  0
   -1.5454    0.9607    0.9415 H   0  0  0  0  0  0  0  0  0  0  0  0
   -1.0393    1.7152   -0.4165 H   0  0  0  0  0  0  0  0  0  0  0  0
   -1.9467    0.3615   -0.5245 H   0  0  0  0  0  0  0  0  0  0  0  0
   -1.4012    4.3612   -2.1879 C   0  0  0  0  0  0  0  0  0  0  0  0
   -0.6091    4.1015   -2.7714 H   0  0  0  0  0  0  0  0  0  0  0  0
   -1.7115    5.2764   -2.5089 H   0  0  0  0  0  0  0  0  0  0  0  0
   -2.2047    3.6427   -2.3498 H   0  0  0  0  0  0  0  0  0  0  0  0
   -0.9188    4.4234   -0.4461 S   0  0  0  0  0  0  0  0  0  0  0  0
   -2.3440    5.3029    0.2635 C   0  0  0  0  0  0  0  0  0  0  0  0
   -3.1552    5.0889   -0.2749 H   0  0  0  0  0  0  0  0  0  0  0  0
   -2.4701    5.0047    1.2064 H   0  0  0  0  0  0  0  0  0  0  0  0
   -2.1636    6.2823    0.2361 H   0  0  0  0  0  0  0  0  0  0  0  0
  1  5  1  0
  5  8  1  0
  1  2  1  0
  1  3  1  0
  1  4  1  0
  5  6  1  0
  5  7  1  0
  8  9  1  0
  8 10  1  0
  8 11  1  0
 12 16  1  0
 16 17  1  0
 12 13  1  0
 12 14  1  0
 12 15  1  0
 17 18  1  0
 17 19  1  0
 17 20  1  0
M  CHG  1   8   1
M  END
>  <PDB_ID>  (454) 
pdb1l9m

>  <RESIDUE_NAME>  (454) 
LYS   MET

>  <FRAG_NAME>  (454) 
ETAM   MSM

>  <FRAG_ATOM_NUM>  (454) 
fragi: 11  fragj: 9

>  <atom.prop.CHAIN_ID>  (454) 
A A A A A A A A A A A Z Z Z Z Z Z Z Z Z

>  <atom.prop.IS_HEAVY_ATOM>  (454) 
1 0 0 0 1 0 0 1 0 0 0 1 0 0 0 1 1 0 0 0

>  <DIFUSE_FUNC_ATOM>  (454) 
n/a

>  <FINAL_SINGLE_POINT_ENERGY>  (454) 
0

>  <NONCOV_INTER_ENERGY_QM>  (454) 
0

>  <FF_Energy>  (454) 
-4.8

>  <QM_Energy>  (454) 
-13.43

>  <source>  (454) 
ETAM_MSM

>  <Index>  (454) 
2594

$$$$
ETAM-pdb1l9m-B-LYS-496:MSM-pdb1l9m-B-MET-491
     RDKit          3D

 20 18  0  0  0  0  0  0  0  0999 V2000
    1.2428    0.8739    0.0000 C   0  0  0  0  0  0  0  0  0  0  0  0
    1.2508    1.4169    0.8308 H   0  0  0  0  0  0  0  0  0  0  0  0
    1.2205    1.4593   -0.8009 H   0  0  0  0  0  0  0  0  0  0  0  0
    2.1473    0.2665   -0.0314 H   0  0  0  0  0  0  0  0  0  0  0  0
    0.0000    0.0000    0.0000 C   0  0  0  0  0  0  0  0  0  0  0  0
    0.0143   -0.5841   -0.8160 H   0  0  0  0  0  0  0  0  0  0  0  0
    0.0135   -0.5842    0.8162 H   0  0  0  0  0  0  0  0  0  0  0  0
   -1.2428    0.8116   -0.0000 N   0  0  0  0  0  4  0  0  0  0  0  0
   -1.5705    0.9196    0.9388 H   0  0  0  0  0  0  0  0  0  0  0  0
   -1.0530    1.7121   -0.3915 H   0  0  0  0  0  0  0  0  0  0  0  0
   -1.9426    0.3510   -0.5464 H   0  0  0  0  0  0  0  0  0  0  0  0
   -1.4334    3.3499   -1.2808 C   0  0  0  0  0  0  0  0  0  0  0  0
   -2.0044    2.4861   -1.1955 H   0  0  0  0  0  0  0  0  0  0  0  0
   -0.5736    3.0271   -1.7670 H   0  0  0  0  0  0  0  0  0  0  0  0
   -1.9587    4.0360   -1.9452 H   0  0  0  0  0  0  0  0  0  0  0  0
   -1.0180    3.9973    0.3726 S   0  0  0  0  0  0  0  0  0  0  0  0
    0.5800    4.7850    0.0588 C   0  0  0  0  0  0  0  0  0  0  0  0
    1.2033    4.1132   -0.3369 H   0  0  0  0  0  0  0  0  0  0  0  0
    0.4510    5.5436   -0.5772 H   0  0  0  0  0  0  0  0  0  0  0  0
    0.9512    5.1254    0.9206 H   0  0  0  0  0  0  0  0  0  0  0  0
  1  5  1  0
  5  8  1  0
  1  2  1  0
  1  3  1  0
  1  4  1  0
  5  6  1  0
  5  7  1  0
  8  9  1  0
  8 10  1  0
  8 11  1  0
 12 16  1  0
 16 17  1  0
 12 13  1  0
 12 14  1  0
 12 15  1  0
 17 18  1  0
 17 19  1  0
 17 20  1  0
M  CHG  1   8   1
M  END
>  <PDB_ID>  (455) 
pdb1l9m

>  <RESIDUE_NAME>  (455) 
LYS   MET

>  <FRAG_NAME>  (455) 
ETAM   MSM

>  <FRAG_ATOM_NUM>  (455) 
fragi: 11  fragj: 9

>  <atom.prop.CHAIN_ID>  (455) 
A A A A A A A A A A A Z Z Z Z Z Z Z Z Z

>  <atom.prop.IS_HEAVY_ATOM>  (455) 
1 0 0 0 1 0 0 1 0 0 0 1 0 0 0 1 1 0 0 0

>  <DIFUSE_FUNC_ATOM>  (455) 
n/a

>  <FINAL_SINGLE_POINT_ENERGY>  (455) 
0

>  <NONCOV_INTER_ENERGY_QM>  (455) 
0

>  <FF_Energy>  (455) 
5.7

>  <QM_Energy>  (455) 
-2.17

>  <source>  (455) 
ETAM_MSM

>  <Index>  (455) 
2595

$$$$
ETAM-pdb2pbi-C-LYS-416:MSM-pdb2pbi-C-MET-413
     RDKit          3D

 20 18  0  0  0  0  0  0  0  0999 V2000
    1.2605    0.8624    0.0000 C   0  0  0  0  0  0  0  0  0  0  0  0
    2.0031    0.3354    0.3876 H   0  0  0  0  0  0  0  0  0  0  0  0
    1.0844    1.6770    0.5332 H   0  0  0  0  0  0  0  0  0  0  0  0
    1.5258    1.1534   -1.0164 H   0  0  0  0  0  0  0  0  0  0  0  0
    0.0000    0.0000    0.0000 C   0  0  0  0  0  0  0  0  0  0  0  0
    0.0071   -0.5863   -0.8168 H   0  0  0  0  0  0  0  0  0  0  0  0
    0.0069   -0.5871    0.8162 H   0  0  0  0  0  0  0  0  0  0  0  0
   -1.2605    0.8163    0.0000 N   0  0  0  0  0  4  0  0  0  0  0  0
   -2.0083    0.2597    0.3536 H   0  0  0  0  0  0  0  0  0  0  0  0
   -1.1288    1.6172    0.5806 H   0  0  0  0  0  0  0  0  0  0  0  0
   -1.4616    1.1027   -0.9342 H   0  0  0  0  0  0  0  0  0  0  0  0
   -4.0128    0.5231   -3.6446 C   0  0  0  0  0  0  0  0  0  0  0  0
   -4.4382    1.4356   -3.3820 H   0  0  0  0  0  0  0  0  0  0  0  0
   -4.7948    0.0177   -4.1094 H   0  0  0  0  0  0  0  0  0  0  0  0
   -3.2396    0.7120   -4.3894 H   0  0  0  0  0  0  0  0  0  0  0  0
   -3.4807   -0.3736   -2.1580 S   0  0  0  0  0  0  0  0  0  0  0  0
   -2.6629   -1.8079   -2.8297 C   0  0  0  0  0  0  0  0  0  0  0  0
   -1.7636   -1.5497   -3.1891 H   0  0  0  0  0  0  0  0  0  0  0  0
   -2.5439   -2.4983   -2.1122 H   0  0  0  0  0  0  0  0  0  0  0  0
   -3.2131   -2.1966   -3.5718 H   0  0  0  0  0  0  0  0  0  0  0  0
  1  5  1  0
  5  8  1  0
  1  2  1  0
  1  3  1  0
  1  4  1  0
  5  6  1  0
  5  7  1  0
  8  9  1  0
  8 10  1  0
  8 11  1  0
 12 16  1  0
 16 17  1  0
 12 13  1  0
 12 14  1  0
 12 15  1  0
 17 18  1  0
 17 19  1  0
 17 20  1  0
M  CHG  1   8   1
M  END
>  <PDB_ID>  (456) 
pdb2pbi

>  <RESIDUE_NAME>  (456) 
LYS   MET

>  <FRAG_NAME>  (456) 
ETAM   MSM

>  <FRAG_ATOM_NUM>  (456) 
fragi: 11  fragj: 9

>  <atom.prop.CHAIN_ID>  (456) 
A A A A A A A A A A A Z Z Z Z Z Z Z Z Z

>  <atom.prop.IS_HEAVY_ATOM>  (456) 
1 0 0 0 1 0 0 1 0 0 0 1 0 0 0 1 1 0 0 0

>  <DIFUSE_FUNC_ATOM>  (456) 
n/a

>  <FINAL_SINGLE_POINT_ENERGY>  (456) 
0

>  <NONCOV_INTER_ENERGY_QM>  (456) 
0

>  <FF_Energy>  (456) 
-5.33

>  <QM_Energy>  (456) 
-13.72

>  <source>  (456) 
ETAM_MSM

>  <Index>  (456) 
2599

$$$$
ETAM-pdb1lb5-A-LYS-388:MSM-pdb1lb5-A-MET-414
     RDKit          3D

 20 18  0  0  0  0  0  0  0  0999 V2000
    1.2546    0.8750    0.0000 C   0  0  0  0  0  0  0  0  0  0  0  0
    2.0521    0.2816    0.0392 H   0  0  0  0  0  0  0  0  0  0  0  0
    1.2251    1.4665    0.7997 H   0  0  0  0  0  0  0  0  0  0  0  0
    1.3191    1.4939   -0.8950 H   0  0  0  0  0  0  0  0  0  0  0  0
    0.0000    0.0000    0.0000 C   0  0  0  0  0  0  0  0  0  0  0  0
    0.0190   -0.5877   -0.8161 H   0  0  0  0  0  0  0  0  0  0  0  0
    0.0186   -0.5876    0.8167 H   0  0  0  0  0  0  0  0  0  0  0  0
   -1.2546    0.7993    0.0000 N   0  0  0  0  0  4  0  0  0  0  0  0
   -1.3786    1.2225    0.8973 H   0  0  0  0  0  0  0  0  0  0  0  0
   -1.1954    1.5110   -0.6998 H   0  0  0  0  0  0  0  0  0  0  0  0
   -2.0299    0.1998   -0.1979 H   0  0  0  0  0  0  0  0  0  0  0  0
    0.0102    5.3139    1.4521 C   0  0  0  0  0  0  0  0  0  0  0  0
   -0.2342    5.7591    2.3411 H   0  0  0  0  0  0  0  0  0  0  0  0
    0.2170    6.0800    0.8058 H   0  0  0  0  0  0  0  0  0  0  0  0
    0.9133    4.7202    1.5944 H   0  0  0  0  0  0  0  0  0  0  0  0
   -1.3722    4.3226    0.8381 S   0  0  0  0  0  0  0  0  0  0  0  0
   -2.0211    3.6588    2.3590 C   0  0  0  0  0  0  0  0  0  0  0  0
   -2.9977    3.8708    2.4338 H   0  0  0  0  0  0  0  0  0  0  0  0
   -1.8998    2.6638    2.3751 H   0  0  0  0  0  0  0  0  0  0  0  0
   -1.5373    4.0612    3.1399 H   0  0  0  0  0  0  0  0  0  0  0  0
  1  5  1  0
  5  8  1  0
  1  2  1  0
  1  3  1  0
  1  4  1  0
  5  6  1  0
  5  7  1  0
  8  9  1  0
  8 10  1  0
  8 11  1  0
 12 16  1  0
 16 17  1  0
 12 13  1  0
 12 14  1  0
 12 15  1  0
 17 18  1  0
 17 19  1  0
 17 20  1  0
M  CHG  1   8   1
M  END
>  <PDB_ID>  (457) 
pdb1lb5

>  <RESIDUE_NAME>  (457) 
LYS   MET

>  <FRAG_NAME>  (457) 
ETAM   MSM

>  <FRAG_ATOM_NUM>  (457) 
fragi: 11  fragj: 9

>  <atom.prop.CHAIN_ID>  (457) 
A A A A A A A A A A A Z Z Z Z Z Z Z Z Z

>  <atom.prop.IS_HEAVY_ATOM>  (457) 
1 0 0 0 1 0 0 1 0 0 0 1 0 0 0 1 1 0 0 0

>  <DIFUSE_FUNC_ATOM>  (457) 
n/a

>  <FINAL_SINGLE_POINT_ENERGY>  (457) 
0

>  <NONCOV_INTER_ENERGY_QM>  (457) 
0

>  <FF_Energy>  (457) 
-4.06

>  <QM_Energy>  (457) 
-9.62

>  <source>  (457) 
ETAM_MSM

>  <Index>  (457) 
2603

$$$$
ETAM-pdb2pju-A-LYS-76:MSM-pdb2pju-B-MET-195
     RDKit          3D

 20 18  0  0  0  0  0  0  0  0999 V2000
    1.2692    0.8697   -0.0000 C   0  0  0  0  0  0  0  0  0  0  0  0
    1.0796    1.7036   -0.4980 H   0  0  0  0  0  0  0  0  0  0  0  0
    2.0013    0.3575   -0.4239 H   0  0  0  0  0  0  0  0  0  0  0  0
    1.5673    1.1308    1.0155 H   0  0  0  0  0  0  0  0  0  0  0  0
    0.0000    0.0000    0.0000 C   0  0  0  0  0  0  0  0  0  0  0  0
    0.0068   -0.5815   -0.8164 H   0  0  0  0  0  0  0  0  0  0  0  0
    0.0069   -0.5813    0.8165 H   0  0  0  0  0  0  0  0  0  0  0  0
   -1.2692    0.8241   -0.0000 N   0  0  0  0  0  4  0  0  0  0  0  0
   -1.1566    1.5836   -0.6345 H   0  0  0  0  0  0  0  0  0  0  0  0
   -2.0259    0.2445   -0.2878 H   0  0  0  0  0  0  0  0  0  0  0  0
   -1.4281    1.1657    0.9217 H   0  0  0  0  0  0  0  0  0  0  0  0
   -4.9622    1.9680    0.6942 C   0  0  0  0  0  0  0  0  0  0  0  0
   -4.5210    2.2165    1.5896 H   0  0  0  0  0  0  0  0  0  0  0  0
   -4.8465    0.9500    0.6116 H   0  0  0  0  0  0  0  0  0  0  0  0
   -6.0287    2.1761    0.7805 H   0  0  0  0  0  0  0  0  0  0  0  0
   -4.1350    2.8239   -0.6913 S   0  0  0  0  0  0  0  0  0  0  0  0
   -4.8983    2.0627   -2.0872 C   0  0  0  0  0  0  0  0  0  0  0  0
   -4.7183    1.0733   -2.0879 H   0  0  0  0  0  0  0  0  0  0  0  0
   -5.8931    2.2070   -2.0637 H   0  0  0  0  0  0  0  0  0  0  0  0
   -4.5376    2.4552   -2.9404 H   0  0  0  0  0  0  0  0  0  0  0  0
  1  5  1  0
  5  8  1  0
  1  2  1  0
  1  3  1  0
  1  4  1  0
  5  6  1  0
  5  7  1  0
  8  9  1  0
  8 10  1  0
  8 11  1  0
 12 16  1  0
 16 17  1  0
 12 13  1  0
 12 14  1  0
 12 15  1  0
 17 18  1  0
 17 19  1  0
 17 20  1  0
M  CHG  1   8   1
M  END
>  <PDB_ID>  (458) 
pdb2pju

>  <RESIDUE_NAME>  (458) 
LYS   MET

>  <FRAG_NAME>  (458) 
ETAM   MSM

>  <FRAG_ATOM_NUM>  (458) 
fragi: 11  fragj: 9

>  <atom.prop.CHAIN_ID>  (458) 
A A A A A A A A A A A Z Z Z Z Z Z Z Z Z

>  <atom.prop.IS_HEAVY_ATOM>  (458) 
1 0 0 0 1 0 0 1 0 0 0 1 0 0 0 1 1 0 0 0

>  <DIFUSE_FUNC_ATOM>  (458) 
n/a

>  <FINAL_SINGLE_POINT_ENERGY>  (458) 
0

>  <NONCOV_INTER_ENERGY_QM>  (458) 
0

>  <FF_Energy>  (458) 
-3.73

>  <QM_Energy>  (458) 
-9.87

>  <source>  (458) 
ETAM_MSM

>  <Index>  (458) 
2609

$$$$
ETAM-pdb1ldn-C-LYS-243:MSM-pdb1ldn-B-MET-63
     RDKit          3D

 20 18  0  0  0  0  0  0  0  0999 V2000
    1.2112    0.9289    0.0000 C   0  0  0  0  0  0  0  0  0  0  0  0
    1.0546    1.6497   -0.6524 H   0  0  0  0  0  0  0  0  0  0  0  0
    2.0125    0.3999   -0.2183 H   0  0  0  0  0  0  0  0  0  0  0  0
    1.3287    1.3642    0.9923 H   0  0  0  0  0  0  0  0  0  0  0  0
    0.0000    0.0000    0.0000 C   0  0  0  0  0  0  0  0  0  0  0  0
    0.0109   -0.5448   -0.8158 H   0  0  0  0  0  0  0  0  0  0  0  0
    0.0109   -0.5448    0.8165 H   0  0  0  0  0  0  0  0  0  0  0  0
   -1.2112    0.8759   -0.0000 N   0  0  0  0  0  4  0  0  0  0  0  0
   -0.9928    1.7389   -0.4530 H   0  0  0  0  0  0  0  0  0  0  0  0
   -1.9493    0.4151   -0.4897 H   0  0  0  0  0  0  0  0  0  0  0  0
   -1.4894    1.0510    0.9430 H   0  0  0  0  0  0  0  0  0  0  0  0
    1.8848    1.9563   -5.1765 C   0  0  0  0  0  0  0  0  0  0  0  0
    2.3682    1.0923   -5.3495 H   0  0  0  0  0  0  0  0  0  0  0  0
    2.3626    2.4501   -4.4422 H   0  0  0  0  0  0  0  0  0  0  0  0
    1.8513    2.5605   -6.0831 H   0  0  0  0  0  0  0  0  0  0  0  0
    0.1480    1.5851   -4.6309 S   0  0  0  0  0  0  0  0  0  0  0  0
    0.5037    1.0830   -2.9300 C   0  0  0  0  0  0  0  0  0  0  0  0
    1.2487    1.6435   -2.5724 H   0  0  0  0  0  0  0  0  0  0  0  0
   -0.3143    1.2121   -2.3732 H   0  0  0  0  0  0  0  0  0  0  0  0
    0.7698    0.1215   -2.9218 H   0  0  0  0  0  0  0  0  0  0  0  0
  1  5  1  0
  5  8  1  0
  1  2  1  0
  1  3  1  0
  1  4  1  0
  5  6  1  0
  5  7  1  0
  8  9  1  0
  8 10  1  0
  8 11  1  0
 12 16  1  0
 16 17  1  0
 12 13  1  0
 12 14  1  0
 12 15  1  0
 17 18  1  0
 17 19  1  0
 17 20  1  0
M  CHG  1   8   1
M  END
>  <PDB_ID>  (459) 
pdb1ldn

>  <RESIDUE_NAME>  (459) 
LYS   MET

>  <FRAG_NAME>  (459) 
ETAM   MSM

>  <FRAG_ATOM_NUM>  (459) 
fragi: 11  fragj: 9

>  <atom.prop.CHAIN_ID>  (459) 
A A A A A A A A A A A Z Z Z Z Z Z Z Z Z

>  <atom.prop.IS_HEAVY_ATOM>  (459) 
1 0 0 0 1 0 0 1 0 0 0 1 0 0 0 1 1 0 0 0

>  <DIFUSE_FUNC_ATOM>  (459) 
n/a

>  <FINAL_SINGLE_POINT_ENERGY>  (459) 
0

>  <NONCOV_INTER_ENERGY_QM>  (459) 
0

>  <FF_Energy>  (459) 
7.74

>  <QM_Energy>  (459) 
2.04

>  <source>  (459) 
ETAM_MSM

>  <Index>  (459) 
2617

$$$$
ETAM-pdb1l5v-A-LYS-667:MSM-pdb1l5v-A-MET-777
     RDKit          3D

 20 18  0  0  0  0  0  0  0  0999 V2000
    1.2294    0.9860    0.0000 C   0  0  0  0  0  0  0  0  0  0  0  0
    2.0438    0.4324    0.1394 H   0  0  0  0  0  0  0  0  0  0  0  0
    1.0996    1.6087    0.7648 H   0  0  0  0  0  0  0  0  0  0  0  0
    1.3132    1.5467   -0.9309 H   0  0  0  0  0  0  0  0  0  0  0  0
    0.0000    0.0000    0.0000 C   0  0  0  0  0  0  0  0  0  0  0  0
    0.0675   -0.5523   -0.8166 H   0  0  0  0  0  0  0  0  0  0  0  0
    0.0672   -0.5524    0.8165 H   0  0  0  0  0  0  0  0  0  0  0  0
   -1.2294    0.7901   -0.0000 N   0  0  0  0  0  4  0  0  0  0  0  0
   -1.1824    1.5018   -0.7070 H   0  0  0  0  0  0  0  0  0  0  0  0
   -2.0194    0.1987   -0.1872 H   0  0  0  0  0  0  0  0  0  0  0  0
   -1.3573    1.2301    0.8940 H   0  0  0  0  0  0  0  0  0  0  0  0
   -0.5225   -0.9818   -4.2015 C   0  0  0  0  0  0  0  0  0  0  0  0
    0.4271   -0.8032   -3.8798 H   0  0  0  0  0  0  0  0  0  0  0  0
   -0.5165   -0.8544   -5.2121 H   0  0  0  0  0  0  0  0  0  0  0  0
   -0.7620   -2.0241   -3.9910 H   0  0  0  0  0  0  0  0  0  0  0  0
   -1.7000    0.2054   -3.4136 S   0  0  0  0  0  0  0  0  0  0  0  0
   -3.2511   -0.1821   -4.3237 C   0  0  0  0  0  0  0  0  0  0  0  0
   -3.7933   -0.8001   -3.7664 H   0  0  0  0  0  0  0  0  0  0  0  0
   -3.7406    0.6682   -4.4809 H   0  0  0  0  0  0  0  0  0  0  0  0
   -3.0073   -0.6100   -5.1861 H   0  0  0  0  0  0  0  0  0  0  0  0
  1  5  1  0
  5  8  1  0
  1  2  1  0
  1  3  1  0
  1  4  1  0
  5  6  1  0
  5  7  1  0
  8  9  1  0
  8 10  1  0
  8 11  1  0
 12 16  1  0
 16 17  1  0
 12 13  1  0
 12 14  1  0
 12 15  1  0
 17 18  1  0
 17 19  1  0
 17 20  1  0
M  CHG  1   8   1
M  END
>  <PDB_ID>  (460) 
pdb1l5v

>  <RESIDUE_NAME>  (460) 
LYS   MET

>  <FRAG_NAME>  (460) 
ETAM   MSM

>  <FRAG_ATOM_NUM>  (460) 
fragi: 11  fragj: 9

>  <atom.prop.CHAIN_ID>  (460) 
A A A A A A A A A A A Z Z Z Z Z Z Z Z Z

>  <atom.prop.IS_HEAVY_ATOM>  (460) 
1 0 0 0 1 0 0 1 0 0 0 1 0 0 0 1 1 0 0 0

>  <DIFUSE_FUNC_ATOM>  (460) 
n/a

>  <FINAL_SINGLE_POINT_ENERGY>  (460) 
0

>  <NONCOV_INTER_ENERGY_QM>  (460) 
0

>  <FF_Energy>  (460) 
-5.54

>  <QM_Energy>  (460) 
-13.36

>  <source>  (460) 
ETAM_MSM

>  <Index>  (460) 
2619

$$$$
ETAM-pdb1ldn-H-LYS-243:MSM-pdb1ldn-E-MET-63
     RDKit          3D

 20 18  0  0  0  0  0  0  0  0999 V2000
    1.2191    0.8923    0.0000 C   0  0  0  0  0  0  0  0  0  0  0  0
    1.0859    1.6234   -0.6487 H   0  0  0  0  0  0  0  0  0  0  0  0
    2.0159    0.3529   -0.2166 H   0  0  0  0  0  0  0  0  0  0  0  0
    1.3527    1.3282    0.9901 H   0  0  0  0  0  0  0  0  0  0  0  0
    0.0000    0.0000    0.0000 C   0  0  0  0  0  0  0  0  0  0  0  0
    0.0037   -0.5626   -0.8165 H   0  0  0  0  0  0  0  0  0  0  0  0
    0.0037   -0.5633    0.8166 H   0  0  0  0  0  0  0  0  0  0  0  0
   -1.2191    0.8563    0.0000 N   0  0  0  0  0  4  0  0  0  0  0  0
   -2.0298    0.2786   -0.0885 H   0  0  0  0  0  0  0  0  0  0  0  0
   -1.2644    1.3681    0.8576 H   0  0  0  0  0  0  0  0  0  0  0  0
   -1.1757    1.4938   -0.7693 H   0  0  0  0  0  0  0  0  0  0  0  0
    2.0923    4.1360   -4.6405 C   0  0  0  0  0  0  0  0  0  0  0  0
    2.4713    3.7191   -5.4606 H   0  0  0  0  0  0  0  0  0  0  0  0
    2.7372    4.0613   -3.8860 H   0  0  0  0  0  0  0  0  0  0  0  0
    1.8636    5.1846   -4.8307 H   0  0  0  0  0  0  0  0  0  0  0  0
    0.5105    3.3274   -4.1975 S   0  0  0  0  0  0  0  0  0  0  0  0
    0.7893    2.8819   -2.4708 C   0  0  0  0  0  0  0  0  0  0  0  0
    0.9622    1.9001   -2.4083 H   0  0  0  0  0  0  0  0  0  0  0  0
    1.5782    3.3864   -2.1245 H   0  0  0  0  0  0  0  0  0  0  0  0
   -0.0207    3.1162   -1.9353 H   0  0  0  0  0  0  0  0  0  0  0  0
  1  5  1  0
  5  8  1  0
  1  2  1  0
  1  3  1  0
  1  4  1  0
  5  6  1  0
  5  7  1  0
  8  9  1  0
  8 10  1  0
  8 11  1  0
 12 16  1  0
 16 17  1  0
 12 13  1  0
 12 14  1  0
 12 15  1  0
 17 18  1  0
 17 19  1  0
 17 20  1  0
M  CHG  1   8   1
M  END
>  <PDB_ID>  (461) 
pdb1ldn

>  <RESIDUE_NAME>  (461) 
LYS   MET

>  <FRAG_NAME>  (461) 
ETAM   MSM

>  <FRAG_ATOM_NUM>  (461) 
fragi: 11  fragj: 9

>  <atom.prop.CHAIN_ID>  (461) 
A A A A A A A A A A A Z Z Z Z Z Z Z Z Z

>  <atom.prop.IS_HEAVY_ATOM>  (461) 
1 0 0 0 1 0 0 1 0 0 0 1 0 0 0 1 1 0 0 0

>  <DIFUSE_FUNC_ATOM>  (461) 
n/a

>  <FINAL_SINGLE_POINT_ENERGY>  (461) 
0

>  <NONCOV_INTER_ENERGY_QM>  (461) 
0

>  <FF_Energy>  (461) 
9.01

>  <QM_Energy>  (461) 
1.56

>  <source>  (461) 
ETAM_MSM

>  <Index>  (461) 
2620

$$$$
ETAM-pdb1ldn-A-LYS-213:MSM-pdb1ldn-A-MET-209
     RDKit          3D

 20 18  0  0  0  0  0  0  0  0999 V2000
    1.2259    0.9164    0.0000 C   0  0  0  0  0  0  0  0  0  0  0  0
    1.0960    1.6118   -0.6751 H   0  0  0  0  0  0  0  0  0  0  0  0
    2.0223    0.3715   -0.1552 H   0  0  0  0  0  0  0  0  0  0  0  0
    1.2907    1.3784    0.9851 H   0  0  0  0  0  0  0  0  0  0  0  0
    0.0000    0.0000    0.0000 C   0  0  0  0  0  0  0  0  0  0  0  0
    0.0133   -0.5545   -0.8163 H   0  0  0  0  0  0  0  0  0  0  0  0
    0.0131   -0.5552    0.8159 H   0  0  0  0  0  0  0  0  0  0  0  0
   -1.2259    0.8569    0.0000 N   0  0  0  0  0  4  0  0  0  0  0  0
   -1.5180    1.0120   -0.9422 H   0  0  0  0  0  0  0  0  0  0  0  0
   -1.9510    0.3929    0.5057 H   0  0  0  0  0  0  0  0  0  0  0  0
   -1.0157    1.7301    0.4363 H   0  0  0  0  0  0  0  0  0  0  0  0
    2.9645   -2.5368    1.7075 C   0  0  0  0  0  0  0  0  0  0  0  0
    2.3523   -2.8864    2.4404 H   0  0  0  0  0  0  0  0  0  0  0  0
    3.3155   -1.6357    2.0221 H   0  0  0  0  0  0  0  0  0  0  0  0
    3.7948   -3.2270    1.5584 H   0  0  0  0  0  0  0  0  0  0  0  0
    2.0037   -2.3152    0.1552 S   0  0  0  0  0  0  0  0  0  0  0  0
    2.4160   -3.9163   -0.6121 C   0  0  0  0  0  0  0  0  0  0  0  0
    2.5108   -3.7857   -1.5949 H   0  0  0  0  0  0  0  0  0  0  0  0
    3.2729   -4.2458   -0.2253 H   0  0  0  0  0  0  0  0  0  0  0  0
    1.6820   -4.5614   -0.4201 H   0  0  0  0  0  0  0  0  0  0  0  0
  1  5  1  0
  5  8  1  0
  1  2  1  0
  1  3  1  0
  1  4  1  0
  5  6  1  0
  5  7  1  0
  8  9  1  0
  8 10  1  0
  8 11  1  0
 12 16  1  0
 16 17  1  0
 12 13  1  0
 12 14  1  0
 12 15  1  0
 17 18  1  0
 17 19  1  0
 17 20  1  0
M  CHG  1   8   1
M  END
>  <PDB_ID>  (462) 
pdb1ldn

>  <RESIDUE_NAME>  (462) 
LYS   MET

>  <FRAG_NAME>  (462) 
ETAM   MSM

>  <FRAG_ATOM_NUM>  (462) 
fragi: 11  fragj: 9

>  <atom.prop.CHAIN_ID>  (462) 
A A A A A A A A A A A Z Z Z Z Z Z Z Z Z

>  <atom.prop.IS_HEAVY_ATOM>  (462) 
1 0 0 0 1 0 0 1 0 0 0 1 0 0 0 1 1 0 0 0

>  <DIFUSE_FUNC_ATOM>  (462) 
n/a

>  <FINAL_SINGLE_POINT_ENERGY>  (462) 
0

>  <NONCOV_INTER_ENERGY_QM>  (462) 
0

>  <FF_Energy>  (462) 
0.01

>  <QM_Energy>  (462) 
-7.37

>  <source>  (462) 
ETAM_MSM

>  <Index>  (462) 
2630

$$$$
ETAM-pdb1lj9-A-LYS-55:MSM-pdb1lj9-B-MET-10
     RDKit          3D

 20 18  0  0  0  0  0  0  0  0999 V2000
    1.2395    0.8662   -0.0000 C   0  0  0  0  0  0  0  0  0  0  0  0
    1.2805    1.3658    0.8674 H   0  0  0  0  0  0  0  0  0  0  0  0
    1.1720    1.5219   -0.7551 H   0  0  0  0  0  0  0  0  0  0  0  0
    2.1580    0.2908   -0.1158 H   0  0  0  0  0  0  0  0  0  0  0  0
    0.0000    0.0000    0.0000 C   0  0  0  0  0  0  0  0  0  0  0  0
    0.0009   -0.5784   -0.8162 H   0  0  0  0  0  0  0  0  0  0  0  0
    0.0006   -0.5784    0.8166 H   0  0  0  0  0  0  0  0  0  0  0  0
   -1.2395    0.8360    0.0000 N   0  0  0  0  0  4  0  0  0  0  0  0
   -0.9901    1.7932   -0.1352 H   0  0  0  0  0  0  0  0  0  0  0  0
   -1.8379    0.5359   -0.7416 H   0  0  0  0  0  0  0  0  0  0  0  0
   -1.7077    0.7293    0.8757 H   0  0  0  0  0  0  0  0  0  0  0  0
    2.6193   -3.7607   -1.1289 C   0  0  0  0  0  0  0  0  0  0  0  0
    2.9091   -2.8220   -1.4870 H   0  0  0  0  0  0  0  0  0  0  0  0
    3.2573   -4.4099   -1.6422 H   0  0  0  0  0  0  0  0  0  0  0  0
    2.8971   -3.8018   -0.0757 H   0  0  0  0  0  0  0  0  0  0  0  0
    0.8800   -4.1002   -1.5612 S   0  0  0  0  0  0  0  0  0  0  0  0
    0.1664   -2.8518   -1.0517 C   0  0  0  0  0  0  0  0  0  0  0  0
    0.1623   -2.7071   -0.0091 H   0  0  0  0  0  0  0  0  0  0  0  0
    0.5370   -1.9274   -1.3946 H   0  0  0  0  0  0  0  0  0  0  0  0
   -0.8574   -2.7702   -1.2822 H   0  0  0  0  0  0  0  0  0  0  0  0
  1  5  1  0
  5  8  1  0
  1  2  1  0
  1  3  1  0
  1  4  1  0
  5  6  1  0
  5  7  1  0
  8  9  1  0
  8 10  1  0
  8 11  1  0
 12 16  1  0
 16 17  1  0
 12 13  1  0
 12 14  1  0
 12 15  1  0
 17 18  1  0
 17 19  1  0
 17 20  1  0
M  CHG  1   8   1
M  END
>  <PDB_ID>  (463) 
pdb1lj9

>  <RESIDUE_NAME>  (463) 
LYS   MET

>  <FRAG_NAME>  (463) 
ETAM   MSM

>  <FRAG_ATOM_NUM>  (463) 
fragi: 11  fragj: 9

>  <atom.prop.CHAIN_ID>  (463) 
A A A A A A A A A A A Z Z Z Z Z Z Z Z Z

>  <atom.prop.IS_HEAVY_ATOM>  (463) 
1 0 0 0 1 0 0 1 0 0 0 1 0 0 0 1 1 0 0 0

>  <DIFUSE_FUNC_ATOM>  (463) 
n/a

>  <FINAL_SINGLE_POINT_ENERGY>  (463) 
0

>  <NONCOV_INTER_ENERGY_QM>  (463) 
0

>  <FF_Energy>  (463) 
25.48

>  <QM_Energy>  (463) 
5.13

>  <source>  (463) 
ETAM_MSM

>  <Index>  (463) 
2634

$$$$
ETAM-pdb1li1-E-LYS-211:MSM-pdb1li1-A-MET-93
     RDKit          3D

 20 18  0  0  0  0  0  0  0  0999 V2000
    1.2323    0.8766    0.0000 C   0  0  0  0  0  0  0  0  0  0  0  0
    1.3128    1.3212   -0.8833 H   0  0  0  0  0  0  0  0  0  0  0  0
    2.0283    0.3141    0.1842 H   0  0  0  0  0  0  0  0  0  0  0  0
    1.1635    1.6451    0.7700 H   0  0  0  0  0  0  0  0  0  0  0  0
    0.0000    0.0000    0.0000 C   0  0  0  0  0  0  0  0  0  0  0  0
    0.0050   -0.5748   -0.8163 H   0  0  0  0  0  0  0  0  0  0  0  0
    0.0048   -0.5754    0.8161 H   0  0  0  0  0  0  0  0  0  0  0  0
   -1.2323    0.8366    0.0000 N   0  0  0  0  0  4  0  0  0  0  0  0
   -0.9886    1.7844    0.2000 H   0  0  0  0  0  0  0  0  0  0  0  0
   -1.6673    0.7843   -0.8980 H   0  0  0  0  0  0  0  0  0  0  0  0
   -1.8629    0.4976    0.6977 H   0  0  0  0  0  0  0  0  0  0  0  0
   -3.2926   -1.7393    0.3132 C   0  0  0  0  0  0  0  0  0  0  0  0
   -3.7573   -2.6468    0.2520 H   0  0  0  0  0  0  0  0  0  0  0  0
   -2.9059   -1.5561   -0.6141 H   0  0  0  0  0  0  0  0  0  0  0  0
   -4.0451   -0.9812    0.5299 H   0  0  0  0  0  0  0  0  0  0  0  0
   -2.0186   -1.7479    1.5542 S   0  0  0  0  0  0  0  0  0  0  0  0
   -2.7010   -3.0123    2.6999 C   0  0  0  0  0  0  0  0  0  0  0  0
   -2.5657   -3.9087    2.2927 H   0  0  0  0  0  0  0  0  0  0  0  0
   -2.2165   -2.9438    3.5642 H   0  0  0  0  0  0  0  0  0  0  0  0
   -3.6689   -2.8296    2.8269 H   0  0  0  0  0  0  0  0  0  0  0  0
  1  5  1  0
  5  8  1  0
  1  2  1  0
  1  3  1  0
  1  4  1  0
  5  6  1  0
  5  7  1  0
  8  9  1  0
  8 10  1  0
  8 11  1  0
 12 16  1  0
 16 17  1  0
 12 13  1  0
 12 14  1  0
 12 15  1  0
 17 18  1  0
 17 19  1  0
 17 20  1  0
M  CHG  1   8   1
M  END
>  <PDB_ID>  (464) 
pdb1li1

>  <RESIDUE_NAME>  (464) 
LYS   MET

>  <FRAG_NAME>  (464) 
ETAM   MSM

>  <FRAG_ATOM_NUM>  (464) 
fragi: 11  fragj: 9

>  <atom.prop.CHAIN_ID>  (464) 
A A A A A A A A A A A Z Z Z Z Z Z Z Z Z

>  <atom.prop.IS_HEAVY_ATOM>  (464) 
1 0 0 0 1 0 0 1 0 0 0 1 0 0 0 1 1 0 0 0

>  <DIFUSE_FUNC_ATOM>  (464) 
n/a

>  <FINAL_SINGLE_POINT_ENERGY>  (464) 
0

>  <NONCOV_INTER_ENERGY_QM>  (464) 
0

>  <FF_Energy>  (464) 
1.55

>  <QM_Energy>  (464) 
-9.95

>  <source>  (464) 
ETAM_MSM

>  <Index>  (464) 
2637

$$$$
ETAM-pdb1li1-D-LYS-211:MSM-pdb1li1-B-MET-93
     RDKit          3D

 20 18  0  0  0  0  0  0  0  0999 V2000
    1.2486    0.8685    0.0000 C   0  0  0  0  0  0  0  0  0  0  0  0
    1.2070    1.4887   -0.7797 H   0  0  0  0  0  0  0  0  0  0  0  0
    2.0479    0.2779   -0.0747 H   0  0  0  0  0  0  0  0  0  0  0  0
    1.3380    1.4615    0.9101 H   0  0  0  0  0  0  0  0  0  0  0  0
    0.0000    0.0000    0.0000 C   0  0  0  0  0  0  0  0  0  0  0  0
    0.0130   -0.5869   -0.8159 H   0  0  0  0  0  0  0  0  0  0  0  0
    0.0122   -0.5872    0.8166 H   0  0  0  0  0  0  0  0  0  0  0  0
   -1.2486    0.8086   -0.0000 N   0  0  0  0  0  4  0  0  0  0  0  0
   -1.2443    1.4258    0.7858 H   0  0  0  0  0  0  0  0  0  0  0  0
   -1.2992    1.3421   -0.8441 H   0  0  0  0  0  0  0  0  0  0  0  0
   -2.0394    0.1990    0.0580 H   0  0  0  0  0  0  0  0  0  0  0  0
    0.6787   -3.9029    1.7718 C   0  0  0  0  0  0  0  0  0  0  0  0
    0.6567   -4.9305    1.6378 H   0  0  0  0  0  0  0  0  0  0  0  0
    0.2608   -3.5289    0.8996 H   0  0  0  0  0  0  0  0  0  0  0  0
    0.0090   -3.6585    2.5962 H   0  0  0  0  0  0  0  0  0  0  0  0
    2.3854   -3.3227    1.9591 S   0  0  0  0  0  0  0  0  0  0  0  0
    2.1799   -1.5736    1.6986 C   0  0  0  0  0  0  0  0  0  0  0  0
    3.0258   -1.1819    1.3278 H   0  0  0  0  0  0  0  0  0  0  0  0
    1.4320   -1.4108    1.0501 H   0  0  0  0  0  0  0  0  0  0  0  0
    1.9638   -1.1225    2.5679 H   0  0  0  0  0  0  0  0  0  0  0  0
  1  5  1  0
  5  8  1  0
  1  2  1  0
  1  3  1  0
  1  4  1  0
  5  6  1  0
  5  7  1  0
  8  9  1  0
  8 10  1  0
  8 11  1  0
 12 16  1  0
 16 17  1  0
 12 13  1  0
 12 14  1  0
 12 15  1  0
 17 18  1  0
 17 19  1  0
 17 20  1  0
M  CHG  1   8   1
M  END
>  <PDB_ID>  (465) 
pdb1li1

>  <RESIDUE_NAME>  (465) 
LYS   MET

>  <FRAG_NAME>  (465) 
ETAM   MSM

>  <FRAG_ATOM_NUM>  (465) 
fragi: 11  fragj: 9

>  <atom.prop.CHAIN_ID>  (465) 
A A A A A A A A A A A Z Z Z Z Z Z Z Z Z

>  <atom.prop.IS_HEAVY_ATOM>  (465) 
1 0 0 0 1 0 0 1 0 0 0 1 0 0 0 1 1 0 0 0

>  <DIFUSE_FUNC_ATOM>  (465) 
n/a

>  <FINAL_SINGLE_POINT_ENERGY>  (465) 
0

>  <NONCOV_INTER_ENERGY_QM>  (465) 
0

>  <FF_Energy>  (465) 
16.98

>  <QM_Energy>  (465) 
5.6

>  <source>  (465) 
ETAM_MSM

>  <Index>  (465) 
2638

$$$$
ETAM-pdb2pm6-A-LYS-428:MSM-pdb2pm6-A-MET-455
     RDKit          3D

 20 18  0  0  0  0  0  0  0  0999 V2000
    1.2459    0.8647   -0.0000 C   0  0  0  0  0  0  0  0  0  0  0  0
    1.2182    1.4616    0.7917 H   0  0  0  0  0  0  0  0  0  0  0  0
    1.2651    1.3941   -0.8389 H   0  0  0  0  0  0  0  0  0  0  0  0
    2.1421    0.2464    0.0522 H   0  0  0  0  0  0  0  0  0  0  0  0
    0.0000    0.0000    0.0000 C   0  0  0  0  0  0  0  0  0  0  0  0
    0.0099   -0.5868   -0.8167 H   0  0  0  0  0  0  0  0  0  0  0  0
    0.0088   -0.5869    0.8163 H   0  0  0  0  0  0  0  0  0  0  0  0
   -1.2459    0.8129    0.0000 N   0  0  0  0  0  4  0  0  0  0  0  0
   -1.5972    0.8816   -0.9339 H   0  0  0  0  0  0  0  0  0  0  0  0
   -1.9291    0.3733    0.5826 H   0  0  0  0  0  0  0  0  0  0  0  0
   -1.0456    1.7275    0.3502 H   0  0  0  0  0  0  0  0  0  0  0  0
   -3.4255    2.7143   -0.4455 C   0  0  0  0  0  0  0  0  0  0  0  0
   -2.8699    1.9941    0.0231 H   0  0  0  0  0  0  0  0  0  0  0  0
   -2.7946    3.1574   -1.1195 H   0  0  0  0  0  0  0  0  0  0  0  0
   -4.2349    2.2296   -0.9915 H   0  0  0  0  0  0  0  0  0  0  0  0
   -4.0347    3.9246    0.7468 S   0  0  0  0  0  0  0  0  0  0  0  0
   -4.2951    2.8916    2.1947 C   0  0  0  0  0  0  0  0  0  0  0  0
   -4.5502    1.9691    1.9032 H   0  0  0  0  0  0  0  0  0  0  0  0
   -3.4515    2.8514    2.7309 H   0  0  0  0  0  0  0  0  0  0  0  0
   -5.0273    3.2805    2.7527 H   0  0  0  0  0  0  0  0  0  0  0  0
  1  5  1  0
  5  8  1  0
  1  2  1  0
  1  3  1  0
  1  4  1  0
  5  6  1  0
  5  7  1  0
  8  9  1  0
  8 10  1  0
  8 11  1  0
 12 16  1  0
 16 17  1  0
 12 13  1  0
 12 14  1  0
 12 15  1  0
 17 18  1  0
 17 19  1  0
 17 20  1  0
M  CHG  1   8   1
M  END
>  <PDB_ID>  (466) 
pdb2pm6

>  <RESIDUE_NAME>  (466) 
LYS   MET

>  <FRAG_NAME>  (466) 
ETAM   MSM

>  <FRAG_ATOM_NUM>  (466) 
fragi: 11  fragj: 9

>  <atom.prop.CHAIN_ID>  (466) 
A A A A A A A A A A A Z Z Z Z Z Z Z Z Z

>  <atom.prop.IS_HEAVY_ATOM>  (466) 
1 0 0 0 1 0 0 1 0 0 0 1 0 0 0 1 1 0 0 0

>  <DIFUSE_FUNC_ATOM>  (466) 
n/a

>  <FINAL_SINGLE_POINT_ENERGY>  (466) 
0

>  <NONCOV_INTER_ENERGY_QM>  (466) 
0

>  <FF_Energy>  (466) 
20.2

>  <QM_Energy>  (466) 
6.0

>  <source>  (466) 
ETAM_MSM

>  <Index>  (466) 
2640

$$$$
ETAM-pdb1li1-B-LYS-211:MSM-pdb1li1-D-MET-93
     RDKit          3D

 20 18  0  0  0  0  0  0  0  0999 V2000
    1.2309    0.8793   -0.0000 C   0  0  0  0  0  0  0  0  0  0  0  0
    1.3070    1.3265   -0.8846 H   0  0  0  0  0  0  0  0  0  0  0  0
    2.0292    0.3149    0.1760 H   0  0  0  0  0  0  0  0  0  0  0  0
    1.1662    1.6444    0.7736 H   0  0  0  0  0  0  0  0  0  0  0  0
    0.0000    0.0000    0.0000 C   0  0  0  0  0  0  0  0  0  0  0  0
    0.0131   -0.5791   -0.8163 H   0  0  0  0  0  0  0  0  0  0  0  0
    0.0128   -0.5790    0.8163 H   0  0  0  0  0  0  0  0  0  0  0  0
   -1.2309    0.8207    0.0000 N   0  0  0  0  0  4  0  0  0  0  0  0
   -1.0849    1.6453    0.5486 H   0  0  0  0  0  0  0  0  0  0  0  0
   -1.4600    1.0828   -0.9382 H   0  0  0  0  0  0  0  0  0  0  0  0
   -1.9866    0.2929    0.3905 H   0  0  0  0  0  0  0  0  0  0  0  0
   -3.2810   -1.7211    0.2873 C   0  0  0  0  0  0  0  0  0  0  0  0
   -3.7471   -2.6261    0.1987 H   0  0  0  0  0  0  0  0  0  0  0  0
   -2.9132   -1.5003   -0.6395 H   0  0  0  0  0  0  0  0  0  0  0  0
   -4.0296   -0.9729    0.5480 H   0  0  0  0  0  0  0  0  0  0  0  0
   -1.9772   -1.7834    1.5022 S   0  0  0  0  0  0  0  0  0  0  0  0
   -2.6620   -3.0530    2.6307 C   0  0  0  0  0  0  0  0  0  0  0  0
   -2.4258   -2.8057    3.5651 H   0  0  0  0  0  0  0  0  0  0  0  0
   -3.6499   -3.0768    2.5168 H   0  0  0  0  0  0  0  0  0  0  0  0
   -2.2643   -3.9330    2.3939 H   0  0  0  0  0  0  0  0  0  0  0  0
  1  5  1  0
  5  8  1  0
  1  2  1  0
  1  3  1  0
  1  4  1  0
  5  6  1  0
  5  7  1  0
  8  9  1  0
  8 10  1  0
  8 11  1  0
 12 16  1  0
 16 17  1  0
 12 13  1  0
 12 14  1  0
 12 15  1  0
 17 18  1  0
 17 19  1  0
 17 20  1  0
M  CHG  1   8   1
M  END
>  <PDB_ID>  (467) 
pdb1li1

>  <RESIDUE_NAME>  (467) 
LYS   MET

>  <FRAG_NAME>  (467) 
ETAM   MSM

>  <FRAG_ATOM_NUM>  (467) 
fragi: 11  fragj: 9

>  <atom.prop.CHAIN_ID>  (467) 
A A A A A A A A A A A Z Z Z Z Z Z Z Z Z

>  <atom.prop.IS_HEAVY_ATOM>  (467) 
1 0 0 0 1 0 0 1 0 0 0 1 0 0 0 1 1 0 0 0

>  <DIFUSE_FUNC_ATOM>  (467) 
n/a

>  <FINAL_SINGLE_POINT_ENERGY>  (467) 
0

>  <NONCOV_INTER_ENERGY_QM>  (467) 
0

>  <FF_Energy>  (467) 
2.69

>  <QM_Energy>  (467) 
-8.28

>  <source>  (467) 
ETAM_MSM

>  <Index>  (467) 
2641

$$$$
ETAM-pdb1li1-A-LYS-211:MSM-pdb1li1-E-MET-93
     RDKit          3D

 20 18  0  0  0  0  0  0  0  0999 V2000
    1.2476    0.8726   -0.0000 C   0  0  0  0  0  0  0  0  0  0  0  0
    1.1904    1.5125   -0.7630 H   0  0  0  0  0  0  0  0  0  0  0  0
    2.0476    0.2863   -0.1065 H   0  0  0  0  0  0  0  0  0  0  0  0
    1.3565    1.4435    0.9222 H   0  0  0  0  0  0  0  0  0  0  0  0
    0.0000    0.0000    0.0000 C   0  0  0  0  0  0  0  0  0  0  0  0
    0.0153   -0.5866   -0.8161 H   0  0  0  0  0  0  0  0  0  0  0  0
    0.0159   -0.5866    0.8162 H   0  0  0  0  0  0  0  0  0  0  0  0
   -1.2476    0.8055   -0.0000 N   0  0  0  0  0  4  0  0  0  0  0  0
   -1.0707    1.6928   -0.4258 H   0  0  0  0  0  0  0  0  0  0  0  0
   -1.9555    0.3233   -0.5158 H   0  0  0  0  0  0  0  0  0  0  0  0
   -1.5559    0.9423    0.9417 H   0  0  0  0  0  0  0  0  0  0  0  0
    0.6012   -3.9890    1.8601 C   0  0  0  0  0  0  0  0  0  0  0  0
    0.6655   -5.0207    1.8423 H   0  0  0  0  0  0  0  0  0  0  0  0
    0.1633   -3.7437    0.9574 H   0  0  0  0  0  0  0  0  0  0  0  0
   -0.0884   -3.7090    2.6565 H   0  0  0  0  0  0  0  0  0  0  0  0
    2.2261   -3.2476    2.0060 S   0  0  0  0  0  0  0  0  0  0  0  0
    1.7977   -1.5333    1.9774 C   0  0  0  0  0  0  0  0  0  0  0  0
    2.3935   -1.0364    1.3389 H   0  0  0  0  0  0  0  0  0  0  0  0
    0.8432   -1.4183    1.6830 H   0  0  0  0  0  0  0  0  0  0  0  0
    1.9036   -1.1335    2.8931 H   0  0  0  0  0  0  0  0  0  0  0  0
  1  5  1  0
  5  8  1  0
  1  2  1  0
  1  3  1  0
  1  4  1  0
  5  6  1  0
  5  7  1  0
  8  9  1  0
  8 10  1  0
  8 11  1  0
 12 16  1  0
 16 17  1  0
 12 13  1  0
 12 14  1  0
 12 15  1  0
 17 18  1  0
 17 19  1  0
 17 20  1  0
M  CHG  1   8   1
M  END
>  <PDB_ID>  (468) 
pdb1li1

>  <RESIDUE_NAME>  (468) 
LYS   MET

>  <FRAG_NAME>  (468) 
ETAM   MSM

>  <FRAG_ATOM_NUM>  (468) 
fragi: 11  fragj: 9

>  <atom.prop.CHAIN_ID>  (468) 
A A A A A A A A A A A Z Z Z Z Z Z Z Z Z

>  <atom.prop.IS_HEAVY_ATOM>  (468) 
1 0 0 0 1 0 0 1 0 0 0 1 0 0 0 1 1 0 0 0

>  <DIFUSE_FUNC_ATOM>  (468) 
n/a

>  <FINAL_SINGLE_POINT_ENERGY>  (468) 
0

>  <NONCOV_INTER_ENERGY_QM>  (468) 
0

>  <FF_Energy>  (468) 
49.97

>  <QM_Energy>  (468) 
8.03

>  <source>  (468) 
ETAM_MSM

>  <Index>  (468) 
2643

$$$$
ETAM-pdb1li1-C-LYS-211:MSM-pdb1li1-F-MET-93
     RDKit          3D

 20 18  0  0  0  0  0  0  0  0999 V2000
    1.2401    0.8567   -0.0000 C   0  0  0  0  0  0  0  0  0  0  0  0
    2.0340    0.2711   -0.0279 H   0  0  0  0  0  0  0  0  0  0  0  0
    1.2347    1.4276    0.8046 H   0  0  0  0  0  0  0  0  0  0  0  0
    1.2308    1.4890   -0.8878 H   0  0  0  0  0  0  0  0  0  0  0  0
    0.0000    0.0000    0.0000 C   0  0  0  0  0  0  0  0  0  0  0  0
    0.0017   -0.5855   -0.8163 H   0  0  0  0  0  0  0  0  0  0  0  0
    0.0024   -0.5860    0.8165 H   0  0  0  0  0  0  0  0  0  0  0  0
   -1.2401    0.8242   -0.0000 N   0  0  0  0  0  4  0  0  0  0  0  0
   -1.8067    0.5704   -0.7835 H   0  0  0  0  0  0  0  0  0  0  0  0
   -1.7458    0.6610    0.8464 H   0  0  0  0  0  0  0  0  0  0  0  0
   -0.9949    1.7912   -0.0629 H   0  0  0  0  0  0  0  0  0  0  0  0
   -2.0012   -1.8477    1.3864 C   0  0  0  0  0  0  0  0  0  0  0  0
   -1.9574   -1.7850    0.3673 H   0  0  0  0  0  0  0  0  0  0  0  0
   -2.3377   -0.9388    1.7108 H   0  0  0  0  0  0  0  0  0  0  0  0
   -2.7206   -2.6172    1.6662 H   0  0  0  0  0  0  0  0  0  0  0  0
   -0.3791   -2.2000    2.0688 S   0  0  0  0  0  0  0  0  0  0  0  0
   -0.5909   -1.5174    3.7316 C   0  0  0  0  0  0  0  0  0  0  0  0
   -1.2423   -2.0811    4.2359 H   0  0  0  0  0  0  0  0  0  0  0  0
    0.2907   -1.5175    4.1997 H   0  0  0  0  0  0  0  0  0  0  0  0
   -0.9361   -0.5840    3.6603 H   0  0  0  0  0  0  0  0  0  0  0  0
  1  5  1  0
  5  8  1  0
  1  2  1  0
  1  3  1  0
  1  4  1  0
  5  6  1  0
  5  7  1  0
  8  9  1  0
  8 10  1  0
  8 11  1  0
 12 16  1  0
 16 17  1  0
 12 13  1  0
 12 14  1  0
 12 15  1  0
 17 18  1  0
 17 19  1  0
 17 20  1  0
M  CHG  1   8   1
M  END
>  <PDB_ID>  (469) 
pdb1li1

>  <RESIDUE_NAME>  (469) 
LYS   MET

>  <FRAG_NAME>  (469) 
ETAM   MSM

>  <FRAG_ATOM_NUM>  (469) 
fragi: 11  fragj: 9

>  <atom.prop.CHAIN_ID>  (469) 
A A A A A A A A A A A Z Z Z Z Z Z Z Z Z

>  <atom.prop.IS_HEAVY_ATOM>  (469) 
1 0 0 0 1 0 0 1 0 0 0 1 0 0 0 1 1 0 0 0

>  <DIFUSE_FUNC_ATOM>  (469) 
n/a

>  <FINAL_SINGLE_POINT_ENERGY>  (469) 
0

>  <NONCOV_INTER_ENERGY_QM>  (469) 
0

>  <FF_Energy>  (469) 
37.6

>  <QM_Energy>  (469) 
2.39

>  <source>  (469) 
ETAM_MSM

>  <Index>  (469) 
2645

$$$$
ETAM-pdb1ldn-B-LYS-213:MSM-pdb1ldn-B-MET-209
     RDKit          3D

 20 18  0  0  0  0  0  0  0  0999 V2000
    1.2428    0.8756    0.0000 C   0  0  0  0  0  0  0  0  0  0  0  0
    1.0861    1.6469   -0.6047 H   0  0  0  0  0  0  0  0  0  0  0  0
    2.0112    0.3332   -0.3161 H   0  0  0  0  0  0  0  0  0  0  0  0
    1.4560    1.2464    1.0026 H   0  0  0  0  0  0  0  0  0  0  0  0
    0.0000    0.0000    0.0000 C   0  0  0  0  0  0  0  0  0  0  0  0
    0.0075   -0.5771   -0.8166 H   0  0  0  0  0  0  0  0  0  0  0  0
    0.0070   -0.5779    0.8160 H   0  0  0  0  0  0  0  0  0  0  0  0
   -1.2428    0.8301    0.0000 N   0  0  0  0  0  4  0  0  0  0  0  0
   -1.0196    1.7549    0.3036 H   0  0  0  0  0  0  0  0  0  0  0  0
   -1.6181    0.8601   -0.9247 H   0  0  0  0  0  0  0  0  0  0  0  0
   -1.9098    0.4228    0.6217 H   0  0  0  0  0  0  0  0  0  0  0  0
    3.6687   -1.7581    0.5580 C   0  0  0  0  0  0  0  0  0  0  0  0
    3.4716   -1.8493    1.5141 H   0  0  0  0  0  0  0  0  0  0  0  0
    3.8840   -0.8378    0.3000 H   0  0  0  0  0  0  0  0  0  0  0  0
    4.4799   -2.4288    0.2752 H   0  0  0  0  0  0  0  0  0  0  0  0
    2.2460   -2.3690   -0.4352 S   0  0  0  0  0  0  0  0  0  0  0  0
    3.0730   -2.6259   -2.0327 C   0  0  0  0  0  0  0  0  0  0  0  0
    2.4912   -3.1930   -2.6103 H   0  0  0  0  0  0  0  0  0  0  0  0
    3.2230   -1.7397   -2.4643 H   0  0  0  0  0  0  0  0  0  0  0  0
    3.9452   -3.0813   -1.8747 H   0  0  0  0  0  0  0  0  0  0  0  0
  1  5  1  0
  5  8  1  0
  1  2  1  0
  1  3  1  0
  1  4  1  0
  5  6  1  0
  5  7  1  0
  8  9  1  0
  8 10  1  0
  8 11  1  0
 12 16  1  0
 16 17  1  0
 12 13  1  0
 12 14  1  0
 12 15  1  0
 17 18  1  0
 17 19  1  0
 17 20  1  0
M  CHG  1   8   1
M  END
>  <PDB_ID>  (470) 
pdb1ldn

>  <RESIDUE_NAME>  (470) 
LYS   MET

>  <FRAG_NAME>  (470) 
ETAM   MSM

>  <FRAG_ATOM_NUM>  (470) 
fragi: 11  fragj: 9

>  <atom.prop.CHAIN_ID>  (470) 
A A A A A A A A A A A Z Z Z Z Z Z Z Z Z

>  <atom.prop.IS_HEAVY_ATOM>  (470) 
1 0 0 0 1 0 0 1 0 0 0 1 0 0 0 1 1 0 0 0

>  <DIFUSE_FUNC_ATOM>  (470) 
n/a

>  <FINAL_SINGLE_POINT_ENERGY>  (470) 
0

>  <NONCOV_INTER_ENERGY_QM>  (470) 
0

>  <FF_Energy>  (470) 
-2.04

>  <QM_Energy>  (470) 
-7.51

>  <source>  (470) 
ETAM_MSM

>  <Index>  (470) 
2655

$$$$
ETAM-pdb2pq6-A-LYS-446:MSM-pdb2pq6-A-MET-450
     RDKit          3D

 20 18  0  0  0  0  0  0  0  0999 V2000
    1.2612    0.8624    0.0000 C   0  0  0  0  0  0  0  0  0  0  0  0
    2.0372    0.2808    0.2363 H   0  0  0  0  0  0  0  0  0  0  0  0
    1.1506    1.5766    0.6878 H   0  0  0  0  0  0  0  0  0  0  0  0
    1.4440    1.3245   -0.9701 H   0  0  0  0  0  0  0  0  0  0  0  0
    0.0000    0.0000    0.0000 C   0  0  0  0  0  0  0  0  0  0  0  0
    0.0192   -0.5964   -0.8159 H   0  0  0  0  0  0  0  0  0  0  0  0
    0.0190   -0.5967    0.8168 H   0  0  0  0  0  0  0  0  0  0  0  0
   -1.2612    0.7849    0.0000 N   0  0  0  0  0  4  0  0  0  0  0  0
   -1.9900    0.2445   -0.4202 H   0  0  0  0  0  0  0  0  0  0  0  0
   -1.5132    1.0100    0.9410 H   0  0  0  0  0  0  0  0  0  0  0  0
   -1.1282    1.6281   -0.5208 H   0  0  0  0  0  0  0  0  0  0  0  0
    0.5362    1.3176    3.4396 C   0  0  0  0  0  0  0  0  0  0  0  0
    0.6798    1.9069    2.6172 H   0  0  0  0  0  0  0  0  0  0  0  0
    1.1039    0.4813    3.2912 H   0  0  0  0  0  0  0  0  0  0  0  0
    0.9112    1.8449    4.3168 H   0  0  0  0  0  0  0  0  0  0  0  0
   -1.2158    0.8747    3.6067 S   0  0  0  0  0  0  0  0  0  0  0  0
   -1.0792   -0.6644    4.5689 C   0  0  0  0  0  0  0  0  0  0  0  0
   -1.6818   -0.6034    5.3603 H   0  0  0  0  0  0  0  0  0  0  0  0
   -1.3495   -1.4297    3.9908 H   0  0  0  0  0  0  0  0  0  0  0  0
   -0.1347   -0.7756    4.8652 H   0  0  0  0  0  0  0  0  0  0  0  0
  1  5  1  0
  5  8  1  0
  1  2  1  0
  1  3  1  0
  1  4  1  0
  5  6  1  0
  5  7  1  0
  8  9  1  0
  8 10  1  0
  8 11  1  0
 12 16  1  0
 16 17  1  0
 12 13  1  0
 12 14  1  0
 12 15  1  0
 17 18  1  0
 17 19  1  0
 17 20  1  0
M  CHG  1   8   1
M  END
>  <PDB_ID>  (471) 
pdb2pq6

>  <RESIDUE_NAME>  (471) 
LYS   MET

>  <FRAG_NAME>  (471) 
ETAM   MSM

>  <FRAG_ATOM_NUM>  (471) 
fragi: 11  fragj: 9

>  <atom.prop.CHAIN_ID>  (471) 
A A A A A A A A A A A Z Z Z Z Z Z Z Z Z

>  <atom.prop.IS_HEAVY_ATOM>  (471) 
1 0 0 0 1 0 0 1 0 0 0 1 0 0 0 1 1 0 0 0

>  <DIFUSE_FUNC_ATOM>  (471) 
n/a

>  <FINAL_SINGLE_POINT_ENERGY>  (471) 
0

>  <NONCOV_INTER_ENERGY_QM>  (471) 
0

>  <FF_Energy>  (471) 
-4.18

>  <QM_Energy>  (471) 
-12.83

>  <source>  (471) 
ETAM_MSM

>  <Index>  (471) 
2664

$$$$
ETAM-pdb2pql-A-LYS-117:MSM-pdb2pql-A-MET-113
     RDKit          3D

 20 18  0  0  0  0  0  0  0  0999 V2000
    1.2374    0.9049   -0.0000 C   0  0  0  0  0  0  0  0  0  0  0  0
    1.8909    0.5427    0.6548 H   0  0  0  0  0  0  0  0  0  0  0  0
    0.9554    1.8212    0.2579 H   0  0  0  0  0  0  0  0  0  0  0  0
    1.7071    0.9429   -0.9829 H   0  0  0  0  0  0  0  0  0  0  0  0
    0.0000    0.0000    0.0000 C   0  0  0  0  0  0  0  0  0  0  0  0
    0.0171   -0.5662   -0.8165 H   0  0  0  0  0  0  0  0  0  0  0  0
    0.0171   -0.5661    0.8165 H   0  0  0  0  0  0  0  0  0  0  0  0
   -1.2374    0.8345    0.0000 N   0  0  0  0  0  4  0  0  0  0  0  0
   -1.7317    0.6913   -0.8564 H   0  0  0  0  0  0  0  0  0  0  0  0
   -1.8146    0.5678    0.7701 H   0  0  0  0  0  0  0  0  0  0  0  0
   -0.9860    1.7972    0.0859 H   0  0  0  0  0  0  0  0  0  0  0  0
    1.9714   -3.1491   -1.4959 C   0  0  0  0  0  0  0  0  0  0  0  0
    1.6212   -3.7305   -0.7265 H   0  0  0  0  0  0  0  0  0  0  0  0
    2.4929   -2.3867   -1.0479 H   0  0  0  0  0  0  0  0  0  0  0  0
    2.6687   -3.7435   -2.0861 H   0  0  0  0  0  0  0  0  0  0  0  0
    0.5877   -2.4854   -2.4723 S   0  0  0  0  0  0  0  0  0  0  0  0
   -0.1983   -4.0259   -2.9606 C   0  0  0  0  0  0  0  0  0  0  0  0
   -0.6134   -4.4564   -2.1591 H   0  0  0  0  0  0  0  0  0  0  0  0
   -0.9056   -3.8375   -3.6427 H   0  0  0  0  0  0  0  0  0  0  0  0
    0.4878   -4.6398   -3.3515 H   0  0  0  0  0  0  0  0  0  0  0  0
  1  5  1  0
  5  8  1  0
  1  2  1  0
  1  3  1  0
  1  4  1  0
  5  6  1  0
  5  7  1  0
  8  9  1  0
  8 10  1  0
  8 11  1  0
 12 16  1  0
 16 17  1  0
 12 13  1  0
 12 14  1  0
 12 15  1  0
 17 18  1  0
 17 19  1  0
 17 20  1  0
M  CHG  1   8   1
M  END
>  <PDB_ID>  (472) 
pdb2pql

>  <RESIDUE_NAME>  (472) 
LYS   MET

>  <FRAG_NAME>  (472) 
ETAM   MSM

>  <FRAG_ATOM_NUM>  (472) 
fragi: 11  fragj: 9

>  <atom.prop.CHAIN_ID>  (472) 
A A A A A A A A A A A Z Z Z Z Z Z Z Z Z

>  <atom.prop.IS_HEAVY_ATOM>  (472) 
1 0 0 0 1 0 0 1 0 0 0 1 0 0 0 1 1 0 0 0

>  <DIFUSE_FUNC_ATOM>  (472) 
n/a

>  <FINAL_SINGLE_POINT_ENERGY>  (472) 
0

>  <NONCOV_INTER_ENERGY_QM>  (472) 
0

>  <FF_Energy>  (472) 
-2.59

>  <QM_Energy>  (472) 
-7.73

>  <source>  (472) 
ETAM_MSM

>  <Index>  (472) 
2668

$$$$
ETAM-pdb1lq8-C-LYS-270:MSM-pdb1lq8-C-MET-274
     RDKit          3D

 20 18  0  0  0  0  0  0  0  0999 V2000
    1.2784    0.8487    0.0000 C   0  0  0  0  0  0  0  0  0  0  0  0
    1.2604    1.4434   -0.8005 H   0  0  0  0  0  0  0  0  0  0  0  0
    2.0628    0.2345   -0.0507 H   0  0  0  0  0  0  0  0  0  0  0  0
    1.3742    1.4670    0.8926 H   0  0  0  0  0  0  0  0  0  0  0  0
    0.0000    0.0000    0.0000 C   0  0  0  0  0  0  0  0  0  0  0  0
    0.0093   -0.5977   -0.8159 H   0  0  0  0  0  0  0  0  0  0  0  0
    0.0091   -0.5975    0.8160 H   0  0  0  0  0  0  0  0  0  0  0  0
   -1.2784    0.7964   -0.0000 N   0  0  0  0  0  4  0  0  0  0  0  0
   -2.0493    0.1684    0.0658 H   0  0  0  0  0  0  0  0  0  0  0  0
   -1.2739    1.4148    0.7822 H   0  0  0  0  0  0  0  0  0  0  0  0
   -1.3342    1.3175   -0.8472 H   0  0  0  0  0  0  0  0  0  0  0  0
   -1.7185    1.0464    4.6450 C   0  0  0  0  0  0  0  0  0  0  0  0
   -2.2707    0.3582    5.1493 H   0  0  0  0  0  0  0  0  0  0  0  0
   -2.3190    1.8517    4.4896 H   0  0  0  0  0  0  0  0  0  0  0  0
   -0.8713    1.3456    5.2622 H   0  0  0  0  0  0  0  0  0  0  0  0
   -1.1615    0.3582    3.0448 S   0  0  0  0  0  0  0  0  0  0  0  0
   -1.9390   -1.3190    3.0132 C   0  0  0  0  0  0  0  0  0  0  0  0
   -2.9065   -1.2051    2.8260 H   0  0  0  0  0  0  0  0  0  0  0  0
   -1.4998   -1.8475    2.2972 H   0  0  0  0  0  0  0  0  0  0  0  0
   -1.7978   -1.7398    3.8998 H   0  0  0  0  0  0  0  0  0  0  0  0
  1  5  1  0
  5  8  1  0
  1  2  1  0
  1  3  1  0
  1  4  1  0
  5  6  1  0
  5  7  1  0
  8  9  1  0
  8 10  1  0
  8 11  1  0
 12 16  1  0
 16 17  1  0
 12 13  1  0
 12 14  1  0
 12 15  1  0
 17 18  1  0
 17 19  1  0
 17 20  1  0
M  CHG  1   8   1
M  END
>  <PDB_ID>  (473) 
pdb1lq8

>  <RESIDUE_NAME>  (473) 
LYS   MET

>  <FRAG_NAME>  (473) 
ETAM   MSM

>  <FRAG_ATOM_NUM>  (473) 
fragi: 11  fragj: 9

>  <atom.prop.CHAIN_ID>  (473) 
A A A A A A A A A A A Z Z Z Z Z Z Z Z Z

>  <atom.prop.IS_HEAVY_ATOM>  (473) 
1 0 0 0 1 0 0 1 0 0 0 1 0 0 0 1 1 0 0 0

>  <DIFUSE_FUNC_ATOM>  (473) 
n/a

>  <FINAL_SINGLE_POINT_ENERGY>  (473) 
0

>  <NONCOV_INTER_ENERGY_QM>  (473) 
0

>  <FF_Energy>  (473) 
-2.66

>  <QM_Energy>  (473) 
-13.71

>  <source>  (473) 
ETAM_MSM

>  <Index>  (473) 
2671

$$$$
ETAM-pdb1lk9-B-LYS-320:MSM-pdb1lk9-B-MET-311
     RDKit          3D

 20 18  0  0  0  0  0  0  0  0999 V2000
    1.2507    0.8594   -0.0000 C   0  0  0  0  0  0  0  0  0  0  0  0
    1.2105    1.4809    0.7783 H   0  0  0  0  0  0  0  0  0  0  0  0
    1.2795    1.3802   -0.8503 H   0  0  0  0  0  0  0  0  0  0  0  0
    2.1582    0.2604    0.0761 H   0  0  0  0  0  0  0  0  0  0  0  0
    0.0000    0.0000    0.0000 C   0  0  0  0  0  0  0  0  0  0  0  0
    0.0070   -0.5884   -0.8160 H   0  0  0  0  0  0  0  0  0  0  0  0
    0.0066   -0.5883    0.8169 H   0  0  0  0  0  0  0  0  0  0  0  0
   -1.2507    0.8144    0.0000 N   0  0  0  0  0  4  0  0  0  0  0  0
   -1.2597    1.4041    0.8066 H   0  0  0  0  0  0  0  0  0  0  0  0
   -1.2792    1.3741   -0.8264 H   0  0  0  0  0  0  0  0  0  0  0  0
   -2.0408    0.2039    0.0206 H   0  0  0  0  0  0  0  0  0  0  0  0
   -0.6229    2.9220   -3.7334 C   0  0  0  0  0  0  0  0  0  0  0  0
   -1.0801    3.3385   -2.9064 H   0  0  0  0  0  0  0  0  0  0  0  0
   -1.3567    2.3367   -4.1658 H   0  0  0  0  0  0  0  0  0  0  0  0
   -0.3785    3.7272   -4.4262 H   0  0  0  0  0  0  0  0  0  0  0  0
    0.7892    1.9144   -3.2418 S   0  0  0  0  0  0  0  0  0  0  0  0
    0.8965    0.7689   -4.6062 C   0  0  0  0  0  0  0  0  0  0  0  0
    1.2655   -0.1068   -4.2860 H   0  0  0  0  0  0  0  0  0  0  0  0
   -0.0145    0.6191   -4.9951 H   0  0  0  0  0  0  0  0  0  0  0  0
    1.5000    1.1413   -5.3148 H   0  0  0  0  0  0  0  0  0  0  0  0
  1  5  1  0
  5  8  1  0
  1  2  1  0
  1  3  1  0
  1  4  1  0
  5  6  1  0
  5  7  1  0
  8  9  1  0
  8 10  1  0
  8 11  1  0
 12 16  1  0
 16 17  1  0
 12 13  1  0
 12 14  1  0
 12 15  1  0
 17 18  1  0
 17 19  1  0
 17 20  1  0
M  CHG  1   8   1
M  END
>  <PDB_ID>  (474) 
pdb1lk9

>  <RESIDUE_NAME>  (474) 
LYS   MET

>  <FRAG_NAME>  (474) 
ETAM   MSM

>  <FRAG_ATOM_NUM>  (474) 
fragi: 11  fragj: 9

>  <atom.prop.CHAIN_ID>  (474) 
A A A A A A A A A A A Z Z Z Z Z Z Z Z Z

>  <atom.prop.IS_HEAVY_ATOM>  (474) 
1 0 0 0 1 0 0 1 0 0 0 1 0 0 0 1 1 0 0 0

>  <DIFUSE_FUNC_ATOM>  (474) 
n/a

>  <FINAL_SINGLE_POINT_ENERGY>  (474) 
0

>  <NONCOV_INTER_ENERGY_QM>  (474) 
0

>  <FF_Energy>  (474) 
-1.71

>  <QM_Energy>  (474) 
-8.49

>  <source>  (474) 
ETAM_MSM

>  <Index>  (474) 
2680

$$$$
ETAM-pdb1ls6-A-LYS-197:MSM-pdb1ls6-A-MET-260
     RDKit          3D

 20 18  0  0  0  0  0  0  0  0999 V2000
    1.2342    0.8478    0.0000 C   0  0  0  0  0  0  0  0  0  0  0  0
    1.1856    1.4949    0.7545 H   0  0  0  0  0  0  0  0  0  0  0  0
    1.2963    1.3326   -0.8665 H   0  0  0  0  0  0  0  0  0  0  0  0
    2.1255    0.2325    0.1231 H   0  0  0  0  0  0  0  0  0  0  0  0
    0.0000    0.0000    0.0000 C   0  0  0  0  0  0  0  0  0  0  0  0
    0.0015   -0.5907   -0.8157 H   0  0  0  0  0  0  0  0  0  0  0  0
    0.0010   -0.5910    0.8168 H   0  0  0  0  0  0  0  0  0  0  0  0
   -1.2342    0.8169   -0.0000 N   0  0  0  0  0  4  0  0  0  0  0  0
   -1.6496    0.7983   -0.9107 H   0  0  0  0  0  0  0  0  0  0  0  0
   -1.8818    0.4469    0.6671 H   0  0  0  0  0  0  0  0  0  0  0  0
   -1.0108    1.7618    0.2432 H   0  0  0  0  0  0  0  0  0  0  0  0
   -2.5818    0.2367    4.8568 C   0  0  0  0  0  0  0  0  0  0  0  0
   -3.1647   -0.5116    4.4600 H   0  0  0  0  0  0  0  0  0  0  0  0
   -3.0826    0.5497    5.6979 H   0  0  0  0  0  0  0  0  0  0  0  0
   -1.6313   -0.1983    5.1657 H   0  0  0  0  0  0  0  0  0  0  0  0
   -2.3951    1.5927    3.6828 S   0  0  0  0  0  0  0  0  0  0  0  0
   -2.4334    3.0097    4.7758 C   0  0  0  0  0  0  0  0  0  0  0  0
   -1.5884    3.0438    5.3113 H   0  0  0  0  0  0  0  0  0  0  0  0
   -2.5174    3.8485    4.2357 H   0  0  0  0  0  0  0  0  0  0  0  0
   -3.2162    2.9351    5.3957 H   0  0  0  0  0  0  0  0  0  0  0  0
  1  5  1  0
  5  8  1  0
  1  2  1  0
  1  3  1  0
  1  4  1  0
  5  6  1  0
  5  7  1  0
  8  9  1  0
  8 10  1  0
  8 11  1  0
 12 16  1  0
 16 17  1  0
 12 13  1  0
 12 14  1  0
 12 15  1  0
 17 18  1  0
 17 19  1  0
 17 20  1  0
M  CHG  1   8   1
M  END
>  <PDB_ID>  (475) 
pdb1ls6

>  <RESIDUE_NAME>  (475) 
LYS   MET

>  <FRAG_NAME>  (475) 
ETAM   MSM

>  <FRAG_ATOM_NUM>  (475) 
fragi: 11  fragj: 9

>  <atom.prop.CHAIN_ID>  (475) 
A A A A A A A A A A A Z Z Z Z Z Z Z Z Z

>  <atom.prop.IS_HEAVY_ATOM>  (475) 
1 0 0 0 1 0 0 1 0 0 0 1 0 0 0 1 1 0 0 0

>  <DIFUSE_FUNC_ATOM>  (475) 
n/a

>  <FINAL_SINGLE_POINT_ENERGY>  (475) 
0

>  <NONCOV_INTER_ENERGY_QM>  (475) 
0

>  <FF_Energy>  (475) 
-4.62

>  <QM_Energy>  (475) 
-10.19

>  <source>  (475) 
ETAM_MSM

>  <Index>  (475) 
2681

$$$$
ETAM-pdb2psv-B-LYS-20:MSM-pdb2psv-B-MET-36
     RDKit          3D

 20 18  0  0  0  0  0  0  0  0999 V2000
    1.2535    0.8518    0.0000 C   0  0  0  0  0  0  0  0  0  0  0  0
    2.0184    0.2852    0.2975 H   0  0  0  0  0  0  0  0  0  0  0  0
    1.1204    1.6065    0.6379 H   0  0  0  0  0  0  0  0  0  0  0  0
    1.4641    1.2494   -0.9928 H   0  0  0  0  0  0  0  0  0  0  0  0
    0.0000    0.0000    0.0000 C   0  0  0  0  0  0  0  0  0  0  0  0
    0.0049   -0.5909   -0.8164 H   0  0  0  0  0  0  0  0  0  0  0  0
    0.0048   -0.5915    0.8165 H   0  0  0  0  0  0  0  0  0  0  0  0
   -1.2535    0.8116   -0.0000 N   0  0  0  0  0  4  0  0  0  0  0  0
   -1.9777    0.2992   -0.4597 H   0  0  0  0  0  0  0  0  0  0  0  0
   -1.5217    1.0025    0.9427 H   0  0  0  0  0  0  0  0  0  0  0  0
   -1.0899    1.6702   -0.4833 H   0  0  0  0  0  0  0  0  0  0  0  0
   -2.5926   -2.0006    3.3957 C   0  0  0  0  0  0  0  0  0  0  0  0
   -2.4250   -1.3578    4.1851 H   0  0  0  0  0  0  0  0  0  0  0  0
   -2.9291   -2.8709    3.8357 H   0  0  0  0  0  0  0  0  0  0  0  0
   -3.3968   -1.5907    2.7845 H   0  0  0  0  0  0  0  0  0  0  0  0
   -1.0658   -2.2985    2.4853 S   0  0  0  0  0  0  0  0  0  0  0  0
   -1.6539   -3.2603    1.0965 C   0  0  0  0  0  0  0  0  0  0  0  0
   -0.8794   -3.5296    0.5213 H   0  0  0  0  0  0  0  0  0  0  0  0
   -2.1203   -4.0813    1.4289 H   0  0  0  0  0  0  0  0  0  0  0  0
   -2.2933   -2.7127    0.5544 H   0  0  0  0  0  0  0  0  0  0  0  0
  1  5  1  0
  5  8  1  0
  1  2  1  0
  1  3  1  0
  1  4  1  0
  5  6  1  0
  5  7  1  0
  8  9  1  0
  8 10  1  0
  8 11  1  0
 12 16  1  0
 16 17  1  0
 12 13  1  0
 12 14  1  0
 12 15  1  0
 17 18  1  0
 17 19  1  0
 17 20  1  0
M  CHG  1   8   1
M  END
>  <PDB_ID>  (476) 
pdb2psv

>  <RESIDUE_NAME>  (476) 
LYS   MET

>  <FRAG_NAME>  (476) 
ETAM   MSM

>  <FRAG_ATOM_NUM>  (476) 
fragi: 11  fragj: 9

>  <atom.prop.CHAIN_ID>  (476) 
A A A A A A A A A A A Z Z Z Z Z Z Z Z Z

>  <atom.prop.IS_HEAVY_ATOM>  (476) 
1 0 0 0 1 0 0 1 0 0 0 1 0 0 0 1 1 0 0 0

>  <DIFUSE_FUNC_ATOM>  (476) 
n/a

>  <FINAL_SINGLE_POINT_ENERGY>  (476) 
0

>  <NONCOV_INTER_ENERGY_QM>  (476) 
0

>  <FF_Energy>  (476) 
-2.32

>  <QM_Energy>  (476) 
-7.81

>  <source>  (476) 
ETAM_MSM

>  <Index>  (476) 
2682

$$$$
ETAM-pdb1lsh-B-LYS-1454:MSM-pdb1lsh-B-MET-1435
     RDKit          3D

 20 18  0  0  0  0  0  0  0  0999 V2000
    1.2651    0.8516   -0.0000 C   0  0  0  0  0  0  0  0  0  0  0  0
    1.2405    1.4555   -0.7867 H   0  0  0  0  0  0  0  0  0  0  0  0
    2.0516    0.2488   -0.0422 H   0  0  0  0  0  0  0  0  0  0  0  0
    1.3298    1.4549    0.9054 H   0  0  0  0  0  0  0  0  0  0  0  0
    0.0000    0.0000    0.0000 C   0  0  0  0  0  0  0  0  0  0  0  0
    0.0126   -0.5982   -0.8159 H   0  0  0  0  0  0  0  0  0  0  0  0
    0.0128   -0.5987    0.8163 H   0  0  0  0  0  0  0  0  0  0  0  0
   -1.2651    0.7911    0.0000 N   0  0  0  0  0  4  0  0  0  0  0  0
   -1.8297    0.5100   -0.7750 H   0  0  0  0  0  0  0  0  0  0  0  0
   -1.7578    0.6250    0.8533 H   0  0  0  0  0  0  0  0  0  0  0  0
   -1.0465    1.7629   -0.0782 H   0  0  0  0  0  0  0  0  0  0  0  0
   -2.6713    4.0916   -1.6638 C   0  0  0  0  0  0  0  0  0  0  0  0
   -3.6616    3.8827   -1.8222 H   0  0  0  0  0  0  0  0  0  0  0  0
   -2.5539    5.0796   -1.9067 H   0  0  0  0  0  0  0  0  0  0  0  0
   -2.4495    3.9603   -0.6047 H   0  0  0  0  0  0  0  0  0  0  0  0
   -1.6266    3.0490   -2.7553 S   0  0  0  0  0  0  0  0  0  0  0  0
   -2.7266    1.6876   -3.1709 C   0  0  0  0  0  0  0  0  0  0  0  0
   -2.5204    1.3644   -4.0948 H   0  0  0  0  0  0  0  0  0  0  0  0
   -2.5931    0.9422   -2.5182 H   0  0  0  0  0  0  0  0  0  0  0  0
   -3.6749    2.0029   -3.1309 H   0  0  0  0  0  0  0  0  0  0  0  0
  1  5  1  0
  5  8  1  0
  1  2  1  0
  1  3  1  0
  1  4  1  0
  5  6  1  0
  5  7  1  0
  8  9  1  0
  8 10  1  0
  8 11  1  0
 12 16  1  0
 16 17  1  0
 12 13  1  0
 12 14  1  0
 12 15  1  0
 17 18  1  0
 17 19  1  0
 17 20  1  0
M  CHG  1   8   1
M  END
>  <PDB_ID>  (477) 
pdb1lsh

>  <RESIDUE_NAME>  (477) 
LYS   MET

>  <FRAG_NAME>  (477) 
ETAM   MSM

>  <FRAG_ATOM_NUM>  (477) 
fragi: 11  fragj: 9

>  <atom.prop.CHAIN_ID>  (477) 
A A A A A A A A A A A Z Z Z Z Z Z Z Z Z

>  <atom.prop.IS_HEAVY_ATOM>  (477) 
1 0 0 0 1 0 0 1 0 0 0 1 0 0 0 1 1 0 0 0

>  <DIFUSE_FUNC_ATOM>  (477) 
n/a

>  <FINAL_SINGLE_POINT_ENERGY>  (477) 
0

>  <NONCOV_INTER_ENERGY_QM>  (477) 
0

>  <FF_Energy>  (477) 
-2.77

>  <QM_Energy>  (477) 
-8.42

>  <source>  (477) 
ETAM_MSM

>  <Index>  (477) 
2686

$$$$
ETAM-pdb2pux-B-LYS-109:MSM-pdb2pux-B-MET-84
     RDKit          3D

 20 18  0  0  0  0  0  0  0  0999 V2000
    1.2715    0.8558   -0.0000 C   0  0  0  0  0  0  0  0  0  0  0  0
    1.1223    1.6409    0.5832 H   0  0  0  0  0  0  0  0  0  0  0  0
    1.4638    1.1325   -0.9303 H   0  0  0  0  0  0  0  0  0  0  0  0
    2.1211    0.2902    0.3827 H   0  0  0  0  0  0  0  0  0  0  0  0
    0.0000    0.0000    0.0000 C   0  0  0  0  0  0  0  0  0  0  0  0
    0.0141   -0.5972   -0.8158 H   0  0  0  0  0  0  0  0  0  0  0  0
    0.0141   -0.5977    0.8159 H   0  0  0  0  0  0  0  0  0  0  0  0
   -1.2715    0.7910   -0.0000 N   0  0  0  0  0  4  0  0  0  0  0  0
   -1.9532    0.3153   -0.5526 H   0  0  0  0  0  0  0  0  0  0  0  0
   -1.6001    0.8819    0.9381 H   0  0  0  0  0  0  0  0  0  0  0  0
   -1.0946    1.6950   -0.3852 H   0  0  0  0  0  0  0  0  0  0  0  0
    0.1103    5.0500    0.2133 C   0  0  0  0  0  0  0  0  0  0  0  0
   -0.6359    5.5325    0.7017 H   0  0  0  0  0  0  0  0  0  0  0  0
    0.7759    5.7544   -0.0872 H   0  0  0  0  0  0  0  0  0  0  0  0
    0.6055    4.3746    0.9109 H   0  0  0  0  0  0  0  0  0  0  0  0
   -0.5339    4.1313   -1.1966 S   0  0  0  0  0  0  0  0  0  0  0  0
    0.9589    4.0504   -2.1757 C   0  0  0  0  0  0  0  0  0  0  0  0
    1.7436    3.8653   -1.5809 H   0  0  0  0  0  0  0  0  0  0  0  0
    0.8786    3.3175   -2.8543 H   0  0  0  0  0  0  0  0  0  0  0  0
    1.1010    4.9229   -2.6479 H   0  0  0  0  0  0  0  0  0  0  0  0
  1  5  1  0
  5  8  1  0
  1  2  1  0
  1  3  1  0
  1  4  1  0
  5  6  1  0
  5  7  1  0
  8  9  1  0
  8 10  1  0
  8 11  1  0
 12 16  1  0
 16 17  1  0
 12 13  1  0
 12 14  1  0
 12 15  1  0
 17 18  1  0
 17 19  1  0
 17 20  1  0
M  CHG  1   8   1
M  END
>  <PDB_ID>  (478) 
pdb2pux

>  <RESIDUE_NAME>  (478) 
LYS   MET

>  <FRAG_NAME>  (478) 
ETAM   MSM

>  <FRAG_ATOM_NUM>  (478) 
fragi: 11  fragj: 9

>  <atom.prop.CHAIN_ID>  (478) 
A A A A A A A A A A A Z Z Z Z Z Z Z Z Z

>  <atom.prop.IS_HEAVY_ATOM>  (478) 
1 0 0 0 1 0 0 1 0 0 0 1 0 0 0 1 1 0 0 0

>  <DIFUSE_FUNC_ATOM>  (478) 
n/a

>  <FINAL_SINGLE_POINT_ENERGY>  (478) 
0

>  <NONCOV_INTER_ENERGY_QM>  (478) 
0

>  <FF_Energy>  (478) 
-5.48

>  <QM_Energy>  (478) 
-15.18

>  <source>  (478) 
ETAM_MSM

>  <Index>  (478) 
2703

$$$$
ETAM-pdb1lwd-A-LYS-217:MSM-pdb1lwd-B-MET-92
     RDKit          3D

 20 18  0  0  0  0  0  0  0  0999 V2000
    1.2499    0.8637   -0.0000 C   0  0  0  0  0  0  0  0  0  0  0  0
    2.0451    0.2731   -0.0725 H   0  0  0  0  0  0  0  0  0  0  0  0
    1.2768    1.3842    0.8456 H   0  0  0  0  0  0  0  0  0  0  0  0
    1.2499    1.5574   -0.8407 H   0  0  0  0  0  0  0  0  0  0  0  0
    0.0000    0.0000    0.0000 C   0  0  0  0  0  0  0  0  0  0  0  0
    0.0071   -0.5858   -0.8159 H   0  0  0  0  0  0  0  0  0  0  0  0
    0.0064   -0.5852    0.8163 H   0  0  0  0  0  0  0  0  0  0  0  0
   -1.2499    0.8183    0.0000 N   0  0  0  0  0  4  0  0  0  0  0  0
   -1.1043    1.6404    0.5476 H   0  0  0  0  0  0  0  0  0  0  0  0
   -1.4750    1.0742   -0.9390 H   0  0  0  0  0  0  0  0  0  0  0  0
   -1.9951    0.2802    0.3911 H   0  0  0  0  0  0  0  0  0  0  0  0
   -1.1623    0.5830    4.1183 C   0  0  0  0  0  0  0  0  0  0  0  0
   -1.7023    0.0837    3.3972 H   0  0  0  0  0  0  0  0  0  0  0  0
   -1.8586    0.8598    4.8247 H   0  0  0  0  0  0  0  0  0  0  0  0
   -0.4683   -0.1217    4.5765 H   0  0  0  0  0  0  0  0  0  0  0  0
   -0.3561    2.0369    3.4157 S   0  0  0  0  0  0  0  0  0  0  0  0
    0.2075    2.8870    4.8959 C   0  0  0  0  0  0  0  0  0  0  0  0
    0.3765    2.2183    5.6199 H   0  0  0  0  0  0  0  0  0  0  0  0
    1.0528    3.3818    4.6940 H   0  0  0  0  0  0  0  0  0  0  0  0
   -0.4942    3.5335    5.1957 H   0  0  0  0  0  0  0  0  0  0  0  0
  1  5  1  0
  5  8  1  0
  1  2  1  0
  1  3  1  0
  1  4  1  0
  5  6  1  0
  5  7  1  0
  8  9  1  0
  8 10  1  0
  8 11  1  0
 12 16  1  0
 16 17  1  0
 12 13  1  0
 12 14  1  0
 12 15  1  0
 17 18  1  0
 17 19  1  0
 17 20  1  0
M  CHG  1   8   1
M  END
>  <PDB_ID>  (479) 
pdb1lwd

>  <RESIDUE_NAME>  (479) 
LYS   MET

>  <FRAG_NAME>  (479) 
ETAM   MSM

>  <FRAG_ATOM_NUM>  (479) 
fragi: 11  fragj: 9

>  <atom.prop.CHAIN_ID>  (479) 
A A A A A A A A A A A Z Z Z Z Z Z Z Z Z

>  <atom.prop.IS_HEAVY_ATOM>  (479) 
1 0 0 0 1 0 0 1 0 0 0 1 0 0 0 1 1 0 0 0

>  <DIFUSE_FUNC_ATOM>  (479) 
n/a

>  <FINAL_SINGLE_POINT_ENERGY>  (479) 
0

>  <NONCOV_INTER_ENERGY_QM>  (479) 
0

>  <FF_Energy>  (479) 
-5.01

>  <QM_Energy>  (479) 
-10.63

>  <source>  (479) 
ETAM_MSM

>  <Index>  (479) 
2719

$$$$
ETAM-pdb1m0t-A-LYS-382:MSM-pdb1m0t-A-MET-415
     RDKit          3D

 20 18  0  0  0  0  0  0  0  0999 V2000
    1.2546    0.8606   -0.0000 C   0  0  0  0  0  0  0  0  0  0  0  0
    1.2252    1.4716    0.7795 H   0  0  0  0  0  0  0  0  0  0  0  0
    1.2952    1.3687   -0.8488 H   0  0  0  0  0  0  0  0  0  0  0  0
    2.1505    0.2447    0.0783 H   0  0  0  0  0  0  0  0  0  0  0  0
    0.0000    0.0000    0.0000 C   0  0  0  0  0  0  0  0  0  0  0  0
    0.0101   -0.5896   -0.8167 H   0  0  0  0  0  0  0  0  0  0  0  0
    0.0099   -0.5905    0.8165 H   0  0  0  0  0  0  0  0  0  0  0  0
   -1.2546    0.8072   -0.0000 N   0  0  0  0  0  4  0  0  0  0  0  0
   -1.2516    1.4213    0.7874 H   0  0  0  0  0  0  0  0  0  0  0  0
   -1.3037    1.3414   -0.8429 H   0  0  0  0  0  0  0  0  0  0  0  0
   -2.0416    0.1942    0.0547 H   0  0  0  0  0  0  0  0  0  0  0  0
   -0.7094    2.1528    4.8232 C   0  0  0  0  0  0  0  0  0  0  0  0
   -1.4107    1.5939    5.3464 H   0  0  0  0  0  0  0  0  0  0  0  0
   -0.5588    2.9845    5.4264 H   0  0  0  0  0  0  0  0  0  0  0  0
    0.2199    1.5837    4.8025 H   0  0  0  0  0  0  0  0  0  0  0  0
   -1.3538    2.6410    3.2116 S   0  0  0  0  0  0  0  0  0  0  0  0
    0.2181    2.9601    2.3051 C   0  0  0  0  0  0  0  0  0  0  0  0
    0.6387    2.0854    2.0970 H   0  0  0  0  0  0  0  0  0  0  0  0
    0.0004    3.4525    1.4714 H   0  0  0  0  0  0  0  0  0  0  0  0
    0.8090    3.5031    2.8895 H   0  0  0  0  0  0  0  0  0  0  0  0
  1  5  1  0
  5  8  1  0
  1  2  1  0
  1  3  1  0
  1  4  1  0
  5  6  1  0
  5  7  1  0
  8  9  1  0
  8 10  1  0
  8 11  1  0
 12 16  1  0
 16 17  1  0
 12 13  1  0
 12 14  1  0
 12 15  1  0
 17 18  1  0
 17 19  1  0
 17 20  1  0
M  CHG  1   8   1
M  END
>  <PDB_ID>  (480) 
pdb1m0t

>  <RESIDUE_NAME>  (480) 
LYS   MET

>  <FRAG_NAME>  (480) 
ETAM   MSM

>  <FRAG_ATOM_NUM>  (480) 
fragi: 11  fragj: 9

>  <atom.prop.CHAIN_ID>  (480) 
A A A A A A A A A A A Z Z Z Z Z Z Z Z Z

>  <atom.prop.IS_HEAVY_ATOM>  (480) 
1 0 0 0 1 0 0 1 0 0 0 1 0 0 0 1 1 0 0 0

>  <DIFUSE_FUNC_ATOM>  (480) 
n/a

>  <FINAL_SINGLE_POINT_ENERGY>  (480) 
0

>  <NONCOV_INTER_ENERGY_QM>  (480) 
0

>  <FF_Energy>  (480) 
13.87

>  <QM_Energy>  (480) 
-4.96

>  <source>  (480) 
ETAM_MSM

>  <Index>  (480) 
2724

$$$$
ETAM-pdb1m0t-B-LYS-1382:MSM-pdb1m0t-B-MET-1415
     RDKit          3D

 20 18  0  0  0  0  0  0  0  0999 V2000
    1.2452    0.8878    0.0000 C   0  0  0  0  0  0  0  0  0  0  0  0
    1.1677    1.5421    0.7398 H   0  0  0  0  0  0  0  0  0  0  0  0
    1.3069    1.3459   -0.8752 H   0  0  0  0  0  0  0  0  0  0  0  0
    2.1482    0.2961    0.1504 H   0  0  0  0  0  0  0  0  0  0  0  0
    0.0000    0.0000    0.0000 C   0  0  0  0  0  0  0  0  0  0  0  0
    0.0218   -0.5818   -0.8165 H   0  0  0  0  0  0  0  0  0  0  0  0
    0.0219   -0.5819    0.8159 H   0  0  0  0  0  0  0  0  0  0  0  0
   -1.2452    0.8046    0.0000 N   0  0  0  0  0  4  0  0  0  0  0  0
   -1.9575    0.3191   -0.5080 H   0  0  0  0  0  0  0  0  0  0  0  0
   -1.5497    0.9500    0.9415 H   0  0  0  0  0  0  0  0  0  0  0  0
   -1.0724    1.6895   -0.4339 H   0  0  0  0  0  0  0  0  0  0  0  0
   -1.6427    1.9914    4.7169 C   0  0  0  0  0  0  0  0  0  0  0  0
   -2.2509    1.2675    5.1022 H   0  0  0  0  0  0  0  0  0  0  0  0
   -1.7391    2.8011    5.3317 H   0  0  0  0  0  0  0  0  0  0  0  0
   -0.6129    1.6387    4.7741 H   0  0  0  0  0  0  0  0  0  0  0  0
   -2.1337    2.4080    3.0219 S   0  0  0  0  0  0  0  0  0  0  0  0
   -0.6178    3.2589    2.4293 C   0  0  0  0  0  0  0  0  0  0  0  0
    0.0916    3.1483    3.1164 H   0  0  0  0  0  0  0  0  0  0  0  0
   -0.3405    2.8427    1.5706 H   0  0  0  0  0  0  0  0  0  0  0  0
   -0.8293    4.2210    2.2976 H   0  0  0  0  0  0  0  0  0  0  0  0
  1  5  1  0
  5  8  1  0
  1  2  1  0
  1  3  1  0
  1  4  1  0
  5  6  1  0
  5  7  1  0
  8  9  1  0
  8 10  1  0
  8 11  1  0
 12 16  1  0
 16 17  1  0
 12 13  1  0
 12 14  1  0
 12 15  1  0
 17 18  1  0
 17 19  1  0
 17 20  1  0
M  CHG  1   8   1
M  END
>  <PDB_ID>  (481) 
pdb1m0t

>  <RESIDUE_NAME>  (481) 
LYS   MET

>  <FRAG_NAME>  (481) 
ETAM   MSM

>  <FRAG_ATOM_NUM>  (481) 
fragi: 11  fragj: 9

>  <atom.prop.CHAIN_ID>  (481) 
A A A A A A A A A A A Z Z Z Z Z Z Z Z Z

>  <atom.prop.IS_HEAVY_ATOM>  (481) 
1 0 0 0 1 0 0 1 0 0 0 1 0 0 0 1 1 0 0 0

>  <DIFUSE_FUNC_ATOM>  (481) 
n/a

>  <FINAL_SINGLE_POINT_ENERGY>  (481) 
0

>  <NONCOV_INTER_ENERGY_QM>  (481) 
0

>  <FF_Energy>  (481) 
-3.71

>  <QM_Energy>  (481) 
-11.81

>  <source>  (481) 
ETAM_MSM

>  <Index>  (481) 
2725

$$$$
ETAM-pdb1m18-A-LYS-464:MSM-pdb1m18-A-MET-490
     RDKit          3D

 20 18  0  0  0  0  0  0  0  0999 V2000
    1.2722    0.8560   -0.0000 C   0  0  0  0  0  0  0  0  0  0  0  0
    1.1295    1.6321    0.5934 H   0  0  0  0  0  0  0  0  0  0  0  0
    1.4625    1.1357   -0.9271 H   0  0  0  0  0  0  0  0  0  0  0  0
    2.1169    0.2777    0.3745 H   0  0  0  0  0  0  0  0  0  0  0  0
    0.0000    0.0000    0.0000 C   0  0  0  0  0  0  0  0  0  0  0  0
    0.0142   -0.5968   -0.8165 H   0  0  0  0  0  0  0  0  0  0  0  0
    0.0138   -0.5973    0.8162 H   0  0  0  0  0  0  0  0  0  0  0  0
   -1.2722    0.7907    0.0000 N   0  0  0  0  0  4  0  0  0  0  0  0
   -1.7545    0.6334    0.8589 H   0  0  0  0  0  0  0  0  0  0  0  0
   -1.0545    1.7607   -0.0937 H   0  0  0  0  0  0  0  0  0  0  0  0
   -1.8400    0.4958   -0.7659 H   0  0  0  0  0  0  0  0  0  0  0  0
    0.2321   -0.4147   -5.6897 C   0  0  0  0  0  0  0  0  0  0  0  0
    0.7301    0.1973   -6.3421 H   0  0  0  0  0  0  0  0  0  0  0  0
   -0.6918    0.0059   -5.5617 H   0  0  0  0  0  0  0  0  0  0  0  0
    0.1061   -1.3901   -6.1597 H   0  0  0  0  0  0  0  0  0  0  0  0
    1.1175   -0.5015   -4.0964 S   0  0  0  0  0  0  0  0  0  0  0  0
   -0.1775   -1.2585   -3.0716 C   0  0  0  0  0  0  0  0  0  0  0  0
    0.2214   -2.0091   -2.5499 H   0  0  0  0  0  0  0  0  0  0  0  0
   -0.5439   -0.5683   -2.4525 H   0  0  0  0  0  0  0  0  0  0  0  0
   -0.9003   -1.6024   -3.6658 H   0  0  0  0  0  0  0  0  0  0  0  0
  1  5  1  0
  5  8  1  0
  1  2  1  0
  1  3  1  0
  1  4  1  0
  5  6  1  0
  5  7  1  0
  8  9  1  0
  8 10  1  0
  8 11  1  0
 12 16  1  0
 16 17  1  0
 12 13  1  0
 12 14  1  0
 12 15  1  0
 17 18  1  0
 17 19  1  0
 17 20  1  0
M  CHG  1   8   1
M  END
>  <PDB_ID>  (482) 
pdb1m18

>  <RESIDUE_NAME>  (482) 
LYS   MET

>  <FRAG_NAME>  (482) 
ETAM   MSM

>  <FRAG_ATOM_NUM>  (482) 
fragi: 11  fragj: 9

>  <atom.prop.CHAIN_ID>  (482) 
A A A A A A A A A A A Z Z Z Z Z Z Z Z Z

>  <atom.prop.IS_HEAVY_ATOM>  (482) 
1 0 0 0 1 0 0 1 0 0 0 1 0 0 0 1 1 0 0 0

>  <DIFUSE_FUNC_ATOM>  (482) 
n/a

>  <FINAL_SINGLE_POINT_ENERGY>  (482) 
0

>  <NONCOV_INTER_ENERGY_QM>  (482) 
0

>  <FF_Energy>  (482) 
7.77

>  <QM_Energy>  (482) 
-0.05

>  <source>  (482) 
ETAM_MSM

>  <Index>  (482) 
2732

$$$$
ETAM-pdb1lwd-B-LYS-217:MSM-pdb1lwd-A-MET-92
     RDKit          3D

 20 18  0  0  0  0  0  0  0  0999 V2000
    1.2431    0.8679   -0.0000 C   0  0  0  0  0  0  0  0  0  0  0  0
    2.0426    0.2836   -0.0559 H   0  0  0  0  0  0  0  0  0  0  0  0
    1.2572    1.4080    0.8314 H   0  0  0  0  0  0  0  0  0  0  0  0
    1.2432    1.5427   -0.8561 H   0  0  0  0  0  0  0  0  0  0  0  0
    0.0000    0.0000    0.0000 C   0  0  0  0  0  0  0  0  0  0  0  0
    0.0054   -0.5811   -0.8164 H   0  0  0  0  0  0  0  0  0  0  0  0
    0.0057   -0.5812    0.8165 H   0  0  0  0  0  0  0  0  0  0  0  0
   -1.2431    0.8271    0.0000 N   0  0  0  0  0  4  0  0  0  0  0  0
   -1.9634    0.3387    0.4904 H   0  0  0  0  0  0  0  0  0  0  0  0
   -1.0591    1.6980    0.4530 H   0  0  0  0  0  0  0  0  0  0  0  0
   -1.5290    0.9914   -0.9423 H   0  0  0  0  0  0  0  0  0  0  0  0
   -1.0315    0.4654    4.1536 C   0  0  0  0  0  0  0  0  0  0  0  0
   -1.5692   -0.0450    3.4469 H   0  0  0  0  0  0  0  0  0  0  0  0
   -1.7142    0.7827    4.8472 H   0  0  0  0  0  0  0  0  0  0  0  0
   -0.3423   -0.2287    4.6346 H   0  0  0  0  0  0  0  0  0  0  0  0
   -0.1735    1.8610    3.4184 S   0  0  0  0  0  0  0  0  0  0  0  0
    0.2200    2.8462    4.8915 C   0  0  0  0  0  0  0  0  0  0  0  0
    0.8391    2.3249    5.4734 H   0  0  0  0  0  0  0  0  0  0  0  0
    0.6562    3.6964    4.6054 H   0  0  0  0  0  0  0  0  0  0  0  0
   -0.6246    3.0450    5.3832 H   0  0  0  0  0  0  0  0  0  0  0  0
  1  5  1  0
  5  8  1  0
  1  2  1  0
  1  3  1  0
  1  4  1  0
  5  6  1  0
  5  7  1  0
  8  9  1  0
  8 10  1  0
  8 11  1  0
 12 16  1  0
 16 17  1  0
 12 13  1  0
 12 14  1  0
 12 15  1  0
 17 18  1  0
 17 19  1  0
 17 20  1  0
M  CHG  1   8   1
M  END
>  <PDB_ID>  (483) 
pdb1lwd

>  <RESIDUE_NAME>  (483) 
LYS   MET

>  <FRAG_NAME>  (483) 
ETAM   MSM

>  <FRAG_ATOM_NUM>  (483) 
fragi: 11  fragj: 9

>  <atom.prop.CHAIN_ID>  (483) 
A A A A A A A A A A A Z Z Z Z Z Z Z Z Z

>  <atom.prop.IS_HEAVY_ATOM>  (483) 
1 0 0 0 1 0 0 1 0 0 0 1 0 0 0 1 1 0 0 0

>  <DIFUSE_FUNC_ATOM>  (483) 
n/a

>  <FINAL_SINGLE_POINT_ENERGY>  (483) 
0

>  <NONCOV_INTER_ENERGY_QM>  (483) 
0

>  <FF_Energy>  (483) 
-4.94

>  <QM_Energy>  (483) 
-10.72

>  <source>  (483) 
ETAM_MSM

>  <Index>  (483) 
2734

$$$$
ETAM-pdb1m4v-A-LYS-138:MSM-pdb1m4v-A-MET-187
     RDKit          3D

 20 18  0  0  0  0  0  0  0  0999 V2000
    1.2479    0.8724    0.0000 C   0  0  0  0  0  0  0  0  0  0  0  0
    1.2451    1.4307   -0.8225 H   0  0  0  0  0  0  0  0  0  0  0  0
    2.0481    0.2828    0.0184 H   0  0  0  0  0  0  0  0  0  0  0  0
    1.2763    1.5293    0.8693 H   0  0  0  0  0  0  0  0  0  0  0  0
    0.0000    0.0000    0.0000 C   0  0  0  0  0  0  0  0  0  0  0  0
    0.0039   -0.5771   -0.8162 H   0  0  0  0  0  0  0  0  0  0  0  0
    0.0043   -0.5773    0.8169 H   0  0  0  0  0  0  0  0  0  0  0  0
   -1.2479    0.8341    0.0000 N   0  0  0  0  0  4  0  0  0  0  0  0
   -1.4321    1.1439    0.9305 H   0  0  0  0  0  0  0  0  0  0  0  0
   -1.1133    1.6206   -0.5995 H   0  0  0  0  0  0  0  0  0  0  0  0
   -2.0095    0.2804   -0.3306 H   0  0  0  0  0  0  0  0  0  0  0  0
   -0.9361    5.2029   -0.1123 C   0  0  0  0  0  0  0  0  0  0  0  0
   -0.3637    5.1881    0.7461 H   0  0  0  0  0  0  0  0  0  0  0  0
   -1.3057    6.1656   -0.1615 H   0  0  0  0  0  0  0  0  0  0  0  0
   -0.2714    5.0526   -0.9630 H   0  0  0  0  0  0  0  0  0  0  0  0
   -2.2660    4.0086   -0.0178 S   0  0  0  0  0  0  0  0  0  0  0  0
   -3.0141    4.4273    1.5804 C   0  0  0  0  0  0  0  0  0  0  0  0
   -2.6264    5.2868    1.9053 H   0  0  0  0  0  0  0  0  0  0  0  0
   -4.0002    4.5225    1.4621 H   0  0  0  0  0  0  0  0  0  0  0  0
   -2.8178    3.6972    2.2313 H   0  0  0  0  0  0  0  0  0  0  0  0
  1  5  1  0
  5  8  1  0
  1  2  1  0
  1  3  1  0
  1  4  1  0
  5  6  1  0
  5  7  1  0
  8  9  1  0
  8 10  1  0
  8 11  1  0
 12 16  1  0
 16 17  1  0
 12 13  1  0
 12 14  1  0
 12 15  1  0
 17 18  1  0
 17 19  1  0
 17 20  1  0
M  CHG  1   8   1
M  END
>  <PDB_ID>  (484) 
pdb1m4v

>  <RESIDUE_NAME>  (484) 
LYS   MET

>  <FRAG_NAME>  (484) 
ETAM   MSM

>  <FRAG_ATOM_NUM>  (484) 
fragi: 11  fragj: 9

>  <atom.prop.CHAIN_ID>  (484) 
A A A A A A A A A A A Z Z Z Z Z Z Z Z Z

>  <atom.prop.IS_HEAVY_ATOM>  (484) 
1 0 0 0 1 0 0 1 0 0 0 1 0 0 0 1 1 0 0 0

>  <DIFUSE_FUNC_ATOM>  (484) 
n/a

>  <FINAL_SINGLE_POINT_ENERGY>  (484) 
0

>  <NONCOV_INTER_ENERGY_QM>  (484) 
0

>  <FF_Energy>  (484) 
-5.13

>  <QM_Energy>  (484) 
-13.01

>  <source>  (484) 
ETAM_MSM

>  <Index>  (484) 
2745

$$$$
ETAM-pdb1m4v-B-LYS-138:MSM-pdb1m4v-B-MET-187
     RDKit          3D

 20 18  0  0  0  0  0  0  0  0999 V2000
    1.2566    0.8690    0.0000 C   0  0  0  0  0  0  0  0  0  0  0  0
    1.2169    1.4823   -0.7819 H   0  0  0  0  0  0  0  0  0  0  0  0
    2.0514    0.2748   -0.0637 H   0  0  0  0  0  0  0  0  0  0  0  0
    1.3348    1.4652    0.9091 H   0  0  0  0  0  0  0  0  0  0  0  0
    0.0000    0.0000    0.0000 C   0  0  0  0  0  0  0  0  0  0  0  0
    0.0092   -0.5834   -0.8168 H   0  0  0  0  0  0  0  0  0  0  0  0
    0.0087   -0.5838    0.8169 H   0  0  0  0  0  0  0  0  0  0  0  0
   -1.2566    0.8183   -0.0000 N   0  0  0  0  0  4  0  0  0  0  0  0
   -2.0285    0.2304    0.2310 H   0  0  0  0  0  0  0  0  0  0  0  0
   -1.1712    1.5471    0.6759 H   0  0  0  0  0  0  0  0  0  0  0  0
   -1.3893    1.2119   -0.9072 H   0  0  0  0  0  0  0  0  0  0  0  0
   -0.7466    5.1985    0.0051 C   0  0  0  0  0  0  0  0  0  0  0  0
   -0.1564    5.1148    0.8534 H   0  0  0  0  0  0  0  0  0  0  0  0
   -1.0582    6.1877    0.0162 H   0  0  0  0  0  0  0  0  0  0  0  0
   -0.1050    5.0584   -0.8648 H   0  0  0  0  0  0  0  0  0  0  0  0
   -2.1432    4.0870    0.0856 S   0  0  0  0  0  0  0  0  0  0  0  0
   -2.8102    4.5104    1.6900 C   0  0  0  0  0  0  0  0  0  0  0  0
   -2.0675    4.7931    2.2996 H   0  0  0  0  0  0  0  0  0  0  0  0
   -3.4647    5.2623    1.5948 H   0  0  0  0  0  0  0  0  0  0  0  0
   -3.2746    3.7151    2.0827 H   0  0  0  0  0  0  0  0  0  0  0  0
  1  5  1  0
  5  8  1  0
  1  2  1  0
  1  3  1  0
  1  4  1  0
  5  6  1  0
  5  7  1  0
  8  9  1  0
  8 10  1  0
  8 11  1  0
 12 16  1  0
 16 17  1  0
 12 13  1  0
 12 14  1  0
 12 15  1  0
 17 18  1  0
 17 19  1  0
 17 20  1  0
M  CHG  1   8   1
M  END
>  <PDB_ID>  (485) 
pdb1m4v

>  <RESIDUE_NAME>  (485) 
LYS   MET

>  <FRAG_NAME>  (485) 
ETAM   MSM

>  <FRAG_ATOM_NUM>  (485) 
fragi: 11  fragj: 9

>  <atom.prop.CHAIN_ID>  (485) 
A A A A A A A A A A A Z Z Z Z Z Z Z Z Z

>  <atom.prop.IS_HEAVY_ATOM>  (485) 
1 0 0 0 1 0 0 1 0 0 0 1 0 0 0 1 1 0 0 0

>  <DIFUSE_FUNC_ATOM>  (485) 
n/a

>  <FINAL_SINGLE_POINT_ENERGY>  (485) 
0

>  <NONCOV_INTER_ENERGY_QM>  (485) 
0

>  <FF_Energy>  (485) 
-5.26

>  <QM_Energy>  (485) 
-13.53

>  <source>  (485) 
ETAM_MSM

>  <Index>  (485) 
2746

$$$$
ETAM-pdb1m53-A-LYS-233:MSM-pdb1m53-A-MET-120
     RDKit          3D

 20 18  0  0  0  0  0  0  0  0999 V2000
    1.2252    0.8721   -0.0000 C   0  0  0  0  0  0  0  0  0  0  0  0
    1.1280    1.5649    0.7066 H   0  0  0  0  0  0  0  0  0  0  0  0
    1.3175    1.2996   -0.8932 H   0  0  0  0  0  0  0  0  0  0  0  0
    2.1194    0.2832    0.2043 H   0  0  0  0  0  0  0  0  0  0  0  0
    0.0000    0.0000    0.0000 C   0  0  0  0  0  0  0  0  0  0  0  0
    0.0082   -0.5805   -0.8163 H   0  0  0  0  0  0  0  0  0  0  0  0
    0.0087   -0.5807    0.8169 H   0  0  0  0  0  0  0  0  0  0  0  0
   -1.2252    0.8236   -0.0000 N   0  0  0  0  0  4  0  0  0  0  0  0
   -0.9934    1.7726    0.2199 H   0  0  0  0  0  0  0  0  0  0  0  0
   -1.6548    0.7892   -0.9038 H   0  0  0  0  0  0  0  0  0  0  0  0
   -1.8676    0.4730    0.6842 H   0  0  0  0  0  0  0  0  0  0  0  0
   -3.4602    4.4086   -1.5297 C   0  0  0  0  0  0  0  0  0  0  0  0
   -4.2178    4.1988   -2.1958 H   0  0  0  0  0  0  0  0  0  0  0  0
   -2.7319    4.8681   -2.0956 H   0  0  0  0  0  0  0  0  0  0  0  0
   -3.8298    5.1148   -0.7863 H   0  0  0  0  0  0  0  0  0  0  0  0
   -2.8233    2.8890   -0.8037 S   0  0  0  0  0  0  0  0  0  0  0  0
   -2.7027    1.9020   -2.3067 C   0  0  0  0  0  0  0  0  0  0  0  0
   -1.9856    2.2786   -2.8926 H   0  0  0  0  0  0  0  0  0  0  0  0
   -2.4784    0.9587   -2.0647 H   0  0  0  0  0  0  0  0  0  0  0  0
   -3.5776    1.9259   -2.7893 H   0  0  0  0  0  0  0  0  0  0  0  0
  1  5  1  0
  5  8  1  0
  1  2  1  0
  1  3  1  0
  1  4  1  0
  5  6  1  0
  5  7  1  0
  8  9  1  0
  8 10  1  0
  8 11  1  0
 12 16  1  0
 16 17  1  0
 12 13  1  0
 12 14  1  0
 12 15  1  0
 17 18  1  0
 17 19  1  0
 17 20  1  0
M  CHG  1   8   1
M  END
>  <PDB_ID>  (486) 
pdb1m53

>  <RESIDUE_NAME>  (486) 
LYS   MET

>  <FRAG_NAME>  (486) 
ETAM   MSM

>  <FRAG_ATOM_NUM>  (486) 
fragi: 11  fragj: 9

>  <atom.prop.CHAIN_ID>  (486) 
A A A A A A A A A A A Z Z Z Z Z Z Z Z Z

>  <atom.prop.IS_HEAVY_ATOM>  (486) 
1 0 0 0 1 0 0 1 0 0 0 1 0 0 0 1 1 0 0 0

>  <DIFUSE_FUNC_ATOM>  (486) 
n/a

>  <FINAL_SINGLE_POINT_ENERGY>  (486) 
0

>  <NONCOV_INTER_ENERGY_QM>  (486) 
0

>  <FF_Energy>  (486) 
10.92

>  <QM_Energy>  (486) 
-2.02

>  <source>  (486) 
ETAM_MSM

>  <Index>  (486) 
2749

$$$$
ETAM-pdb1m6d-A-LYS-58:MSM-pdb1m6d-A-MET-92
     RDKit          3D

 20 18  0  0  0  0  0  0  0  0999 V2000
    1.2302    0.8891   -0.0000 C   0  0  0  0  0  0  0  0  0  0  0  0
    1.2331    1.4313    0.8378 H   0  0  0  0  0  0  0  0  0  0  0  0
    1.1876    1.4927   -0.7941 H   0  0  0  0  0  0  0  0  0  0  0  0
    2.1552    0.3144   -0.0463 H   0  0  0  0  0  0  0  0  0  0  0  0
    0.0000    0.0000    0.0000 C   0  0  0  0  0  0  0  0  0  0  0  0
    0.0127   -0.5723   -0.8161 H   0  0  0  0  0  0  0  0  0  0  0  0
    0.0116   -0.5727    0.8165 H   0  0  0  0  0  0  0  0  0  0  0  0
   -1.2302    0.8314   -0.0000 N   0  0  0  0  0  4  0  0  0  0  0  0
   -2.0121    0.2695    0.2723 H   0  0  0  0  0  0  0  0  0  0  0  0
   -1.1217    1.5871    0.6467 H   0  0  0  0  0  0  0  0  0  0  0  0
   -1.3853    1.1970   -0.9176 H   0  0  0  0  0  0  0  0  0  0  0  0
   -4.9512    2.7894   -2.1505 C   0  0  0  0  0  0  0  0  0  0  0  0
   -5.4507    2.1251   -1.5520 H   0  0  0  0  0  0  0  0  0  0  0  0
   -4.5775    2.2369   -2.9269 H   0  0  0  0  0  0  0  0  0  0  0  0
   -5.6688    3.5075   -2.5473 H   0  0  0  0  0  0  0  0  0  0  0  0
   -3.6152    3.5891   -1.2375 S   0  0  0  0  0  0  0  0  0  0  0  0
   -4.4161    3.9271    0.3141 C   0  0  0  0  0  0  0  0  0  0  0  0
   -4.9636    4.7648    0.2411 H   0  0  0  0  0  0  0  0  0  0  0  0
   -5.0175    3.1634    0.5621 H   0  0  0  0  0  0  0  0  0  0  0  0
   -3.7289    4.0480    1.0345 H   0  0  0  0  0  0  0  0  0  0  0  0
  1  5  1  0
  5  8  1  0
  1  2  1  0
  1  3  1  0
  1  4  1  0
  5  6  1  0
  5  7  1  0
  8  9  1  0
  8 10  1  0
  8 11  1  0
 12 16  1  0
 16 17  1  0
 12 13  1  0
 12 14  1  0
 12 15  1  0
 17 18  1  0
 17 19  1  0
 17 20  1  0
M  CHG  1   8   1
M  END
>  <PDB_ID>  (487) 
pdb1m6d

>  <RESIDUE_NAME>  (487) 
LYS   MET

>  <FRAG_NAME>  (487) 
ETAM   MSM

>  <FRAG_ATOM_NUM>  (487) 
fragi: 11  fragj: 9

>  <atom.prop.CHAIN_ID>  (487) 
A A A A A A A A A A A Z Z Z Z Z Z Z Z Z

>  <atom.prop.IS_HEAVY_ATOM>  (487) 
1 0 0 0 1 0 0 1 0 0 0 1 0 0 0 1 1 0 0 0

>  <DIFUSE_FUNC_ATOM>  (487) 
n/a

>  <FINAL_SINGLE_POINT_ENERGY>  (487) 
0

>  <NONCOV_INTER_ENERGY_QM>  (487) 
0

>  <FF_Energy>  (487) 
-3.73

>  <QM_Energy>  (487) 
-9.82

>  <source>  (487) 
ETAM_MSM

>  <Index>  (487) 
2760

$$$$
ETAM-pdb1m6k-B-LYS-58:MSM-pdb1m6k-B-MET-63
     RDKit          3D

 20 18  0  0  0  0  0  0  0  0999 V2000
    1.2518    0.8685   -0.0000 C   0  0  0  0  0  0  0  0  0  0  0  0
    1.1711    1.5386    0.7259 H   0  0  0  0  0  0  0  0  0  0  0  0
    1.3286    1.3116   -0.8838 H   0  0  0  0  0  0  0  0  0  0  0  0
    2.1422    0.2639    0.1726 H   0  0  0  0  0  0  0  0  0  0  0  0
    0.0000    0.0000    0.0000 C   0  0  0  0  0  0  0  0  0  0  0  0
    0.0142   -0.5875   -0.8164 H   0  0  0  0  0  0  0  0  0  0  0  0
    0.0132   -0.5879    0.8163 H   0  0  0  0  0  0  0  0  0  0  0  0
   -1.2518    0.8060   -0.0000 N   0  0  0  0  0  4  0  0  0  0  0  0
   -1.9795    0.2872   -0.4466 H   0  0  0  0  0  0  0  0  0  0  0  0
   -1.5144    1.0091    0.9424 H   0  0  0  0  0  0  0  0  0  0  0  0
   -1.0958    1.6596   -0.4958 H   0  0  0  0  0  0  0  0  0  0  0  0
   -4.3136   -0.2864    3.9411 C   0  0  0  0  0  0  0  0  0  0  0  0
   -3.4722   -0.1011    4.4763 H   0  0  0  0  0  0  0  0  0  0  0  0
   -4.8592   -0.9632    4.4636 H   0  0  0  0  0  0  0  0  0  0  0  0
   -4.8856    0.6363    3.8433 H   0  0  0  0  0  0  0  0  0  0  0  0
   -3.8790   -0.9610    2.2972 S   0  0  0  0  0  0  0  0  0  0  0  0
   -2.9068   -2.3842    2.7676 C   0  0  0  0  0  0  0  0  0  0  0  0
   -2.2209   -2.5734    2.0624 H   0  0  0  0  0  0  0  0  0  0  0  0
   -2.4442   -2.2052    3.6379 H   0  0  0  0  0  0  0  0  0  0  0  0
   -3.5035   -3.1831    2.8696 H   0  0  0  0  0  0  0  0  0  0  0  0
  1  5  1  0
  5  8  1  0
  1  2  1  0
  1  3  1  0
  1  4  1  0
  5  6  1  0
  5  7  1  0
  8  9  1  0
  8 10  1  0
  8 11  1  0
 12 16  1  0
 16 17  1  0
 12 13  1  0
 12 14  1  0
 12 15  1  0
 17 18  1  0
 17 19  1  0
 17 20  1  0
M  CHG  1   8   1
M  END
>  <PDB_ID>  (488) 
pdb1m6k

>  <RESIDUE_NAME>  (488) 
LYS   MET

>  <FRAG_NAME>  (488) 
ETAM   MSM

>  <FRAG_ATOM_NUM>  (488) 
fragi: 11  fragj: 9

>  <atom.prop.CHAIN_ID>  (488) 
A A A A A A A A A A A Z Z Z Z Z Z Z Z Z

>  <atom.prop.IS_HEAVY_ATOM>  (488) 
1 0 0 0 1 0 0 1 0 0 0 1 0 0 0 1 1 0 0 0

>  <DIFUSE_FUNC_ATOM>  (488) 
n/a

>  <FINAL_SINGLE_POINT_ENERGY>  (488) 
0

>  <NONCOV_INTER_ENERGY_QM>  (488) 
0

>  <FF_Energy>  (488) 
-4.01

>  <QM_Energy>  (488) 
-10.22

>  <source>  (488) 
ETAM_MSM

>  <Index>  (488) 
2771

$$$$
ETAM-pdb1m9c-C-LYS-140:MSM-pdb1m9c-C-MET-68
     RDKit          3D

 20 18  0  0  0  0  0  0  0  0999 V2000
    1.2811    0.8285    0.0000 C   0  0  0  0  0  0  0  0  0  0  0  0
    2.0444    0.2303   -0.2272 H   0  0  0  0  0  0  0  0  0  0  0  0
    1.4070    1.2162    0.9090 H   0  0  0  0  0  0  0  0  0  0  0  0
    1.2426    1.6403   -0.7262 H   0  0  0  0  0  0  0  0  0  0  0  0
    0.0000    0.0000    0.0000 C   0  0  0  0  0  0  0  0  0  0  0  0
    0.0062   -0.6090   -0.8159 H   0  0  0  0  0  0  0  0  0  0  0  0
    0.0061   -0.6089    0.8168 H   0  0  0  0  0  0  0  0  0  0  0  0
   -1.2811    0.7841   -0.0000 N   0  0  0  0  0  4  0  0  0  0  0  0
   -1.6957    0.7278   -0.9051 H   0  0  0  0  0  0  0  0  0  0  0  0
   -1.8981    0.3981    0.6821 H   0  0  0  0  0  0  0  0  0  0  0  0
   -1.0793    1.7352    0.2237 H   0  0  0  0  0  0  0  0  0  0  0  0
   -1.1995    4.0842    1.8891 C   0  0  0  0  0  0  0  0  0  0  0  0
   -0.1987    4.2459    1.9083 H   0  0  0  0  0  0  0  0  0  0  0  0
   -1.3558    3.1237    2.1740 H   0  0  0  0  0  0  0  0  0  0  0  0
   -1.6753    4.7467    2.6123 H   0  0  0  0  0  0  0  0  0  0  0  0
   -1.8533    4.3540    0.1817 S   0  0  0  0  0  0  0  0  0  0  0  0
   -3.4671    3.4420    0.2901 C   0  0  0  0  0  0  0  0  0  0  0  0
   -4.1781    4.0431   -0.0466 H   0  0  0  0  0  0  0  0  0  0  0  0
   -3.3939    2.6281   -0.2704 H   0  0  0  0  0  0  0  0  0  0  0  0
   -3.6190    3.2075    1.2401 H   0  0  0  0  0  0  0  0  0  0  0  0
  1  5  1  0
  5  8  1  0
  1  2  1  0
  1  3  1  0
  1  4  1  0
  5  6  1  0
  5  7  1  0
  8  9  1  0
  8 10  1  0
  8 11  1  0
 12 16  1  0
 16 17  1  0
 12 13  1  0
 12 14  1  0
 12 15  1  0
 17 18  1  0
 17 19  1  0
 17 20  1  0
M  CHG  1   8   1
M  END
>  <PDB_ID>  (489) 
pdb1m9c

>  <RESIDUE_NAME>  (489) 
LYS   MET

>  <FRAG_NAME>  (489) 
ETAM   MSM

>  <FRAG_ATOM_NUM>  (489) 
fragi: 11  fragj: 9

>  <atom.prop.CHAIN_ID>  (489) 
A A A A A A A A A A A Z Z Z Z Z Z Z Z Z

>  <atom.prop.IS_HEAVY_ATOM>  (489) 
1 0 0 0 1 0 0 1 0 0 0 1 0 0 0 1 1 0 0 0

>  <DIFUSE_FUNC_ATOM>  (489) 
n/a

>  <FINAL_SINGLE_POINT_ENERGY>  (489) 
0

>  <NONCOV_INTER_ENERGY_QM>  (489) 
0

>  <FF_Energy>  (489) 
-2.49

>  <QM_Energy>  (489) 
-8.54

>  <source>  (489) 
ETAM_MSM

>  <Index>  (489) 
2778

$$$$
ETAM-pdb1m56-C-LYS-103:MSM-pdb1m56-C-MET-109
     RDKit          3D

 20 18  0  0  0  0  0  0  0  0999 V2000
    1.2784    0.8256   -0.0000 C   0  0  0  0  0  0  0  0  0  0  0  0
    1.4136    1.1998    0.8761 H   0  0  0  0  0  0  0  0  0  0  0  0
    1.2506    1.4532   -0.7288 H   0  0  0  0  0  0  0  0  0  0  0  0
    2.0603    0.0915   -0.1947 H   0  0  0  0  0  0  0  0  0  0  0  0
    0.0000    0.0000    0.0000 C   0  0  0  0  0  0  0  0  0  0  0  0
    0.0392   -0.6371   -0.8160 H   0  0  0  0  0  0  0  0  0  0  0  0
    0.0389   -0.6378    0.8163 H   0  0  0  0  0  0  0  0  0  0  0  0
   -1.2784    0.6982    0.0000 N   0  0  0  0  0  4  0  0  0  0  0  0
   -1.1829    1.5971    0.4387 H   0  0  0  0  0  0  0  0  0  0  0  0
   -1.6009    0.8321   -0.9428 H   0  0  0  0  0  0  0  0  0  0  0  0
   -1.9658    0.1646    0.5032 H   0  0  0  0  0  0  0  0  0  0  0  0
   -3.6853    5.2033    0.2339 C   0  0  0  0  0  0  0  0  0  0  0  0
   -2.8269    5.3266   -0.2548 H   0  0  0  0  0  0  0  0  0  0  0  0
   -3.6388    5.6436    1.1254 H   0  0  0  0  0  0  0  0  0  0  0  0
   -4.4903    5.6564   -0.3447 H   0  0  0  0  0  0  0  0  0  0  0  0
   -4.1088    3.4757    0.3818 S   0  0  0  0  0  0  0  0  0  0  0  0
   -5.5615    3.5318    1.4063 C   0  0  0  0  0  0  0  0  0  0  0  0
   -6.3696    3.2779    0.8689 H   0  0  0  0  0  0  0  0  0  0  0  0
   -5.4644    2.8916    2.1728 H   0  0  0  0  0  0  0  0  0  0  0  0
   -5.6888    4.4585    1.7684 H   0  0  0  0  0  0  0  0  0  0  0  0
  1  5  1  0
  5  8  1  0
  1  2  1  0
  1  3  1  0
  1  4  1  0
  5  6  1  0
  5  7  1  0
  8  9  1  0
  8 10  1  0
  8 11  1  0
 12 16  1  0
 16 17  1  0
 12 13  1  0
 12 14  1  0
 12 15  1  0
 17 18  1  0
 17 19  1  0
 17 20  1  0
M  CHG  1   8   1
M  END
>  <PDB_ID>  (490) 
pdb1m56

>  <RESIDUE_NAME>  (490) 
LYS   MET

>  <FRAG_NAME>  (490) 
ETAM   MSM

>  <FRAG_ATOM_NUM>  (490) 
fragi: 11  fragj: 9

>  <atom.prop.CHAIN_ID>  (490) 
A A A A A A A A A A A Z Z Z Z Z Z Z Z Z

>  <atom.prop.IS_HEAVY_ATOM>  (490) 
1 0 0 0 1 0 0 1 0 0 0 1 0 0 0 1 1 0 0 0

>  <DIFUSE_FUNC_ATOM>  (490) 
n/a

>  <FINAL_SINGLE_POINT_ENERGY>  (490) 
0

>  <NONCOV_INTER_ENERGY_QM>  (490) 
0

>  <FF_Energy>  (490) 
-4.18

>  <QM_Energy>  (490) 
-9.93

>  <source>  (490) 
ETAM_MSM

>  <Index>  (490) 
2779

$$$$
ETAM-pdb2q8k-A-LYS-51:MSM-pdb2q8k-A-MET-55
     RDKit          3D

 20 18  0  0  0  0  0  0  0  0999 V2000
    1.2986    0.8562   -0.0000 C   0  0  0  0  0  0  0  0  0  0  0  0
    1.3839    1.2831   -0.8874 H   0  0  0  0  0  0  0  0  0  0  0  0
    2.0612    0.2559    0.1857 H   0  0  0  0  0  0  0  0  0  0  0  0
    1.2633    1.6326    0.7642 H   0  0  0  0  0  0  0  0  0  0  0  0
    0.0000    0.0000    0.0000 C   0  0  0  0  0  0  0  0  0  0  0  0
    0.0254   -0.6066   -0.8167 H   0  0  0  0  0  0  0  0  0  0  0  0
    0.0251   -0.6060    0.8165 H   0  0  0  0  0  0  0  0  0  0  0  0
   -1.2986    0.7615    0.0000 N   0  0  0  0  0  4  0  0  0  0  0  0
   -1.3921    1.2401   -0.8694 H   0  0  0  0  0  0  0  0  0  0  0  0
   -2.0504    0.1175    0.1176 H   0  0  0  0  0  0  0  0  0  0  0  0
   -1.2897    1.4163    0.7516 H   0  0  0  0  0  0  0  0  0  0  0  0
   -1.9825    2.2069    3.8881 C   0  0  0  0  0  0  0  0  0  0  0  0
   -2.8615    2.5279    3.5182 H   0  0  0  0  0  0  0  0  0  0  0  0
   -1.2522    2.8021    3.5347 H   0  0  0  0  0  0  0  0  0  0  0  0
   -2.0058    2.2776    4.9756 H   0  0  0  0  0  0  0  0  0  0  0  0
   -1.6865    0.4994    3.4556 S   0  0  0  0  0  0  0  0  0  0  0  0
   -3.3349   -0.2100    3.5381 C   0  0  0  0  0  0  0  0  0  0  0  0
   -3.2768   -1.2013    3.4221 H   0  0  0  0  0  0  0  0  0  0  0  0
   -3.7433   -0.0008    4.4267 H   0  0  0  0  0  0  0  0  0  0  0  0
   -3.9018    0.1780    2.8114 H   0  0  0  0  0  0  0  0  0  0  0  0
  1  5  1  0
  5  8  1  0
  1  2  1  0
  1  3  1  0
  1  4  1  0
  5  6  1  0
  5  7  1  0
  8  9  1  0
  8 10  1  0
  8 11  1  0
 12 16  1  0
 16 17  1  0
 12 13  1  0
 12 14  1  0
 12 15  1  0
 17 18  1  0
 17 19  1  0
 17 20  1  0
M  CHG  1   8   1
M  END
>  <PDB_ID>  (491) 
pdb2q8k

>  <RESIDUE_NAME>  (491) 
LYS   MET

>  <FRAG_NAME>  (491) 
ETAM   MSM

>  <FRAG_ATOM_NUM>  (491) 
fragi: 11  fragj: 9

>  <atom.prop.CHAIN_ID>  (491) 
A A A A A A A A A A A Z Z Z Z Z Z Z Z Z

>  <atom.prop.IS_HEAVY_ATOM>  (491) 
1 0 0 0 1 0 0 1 0 0 0 1 0 0 0 1 1 0 0 0

>  <DIFUSE_FUNC_ATOM>  (491) 
n/a

>  <FINAL_SINGLE_POINT_ENERGY>  (491) 
0

>  <NONCOV_INTER_ENERGY_QM>  (491) 
0

>  <FF_Energy>  (491) 
-4.88

>  <QM_Energy>  (491) 
-12.66

>  <source>  (491) 
ETAM_MSM

>  <Index>  (491) 
2786

$$$$
ETAM-pdb2q6d-B-LYS-81:MSM-pdb2q6d-B-MET-176
     RDKit          3D

 20 18  0  0  0  0  0  0  0  0999 V2000
    1.2317    0.8805   -0.0000 C   0  0  0  0  0  0  0  0  0  0  0  0
    1.1385    1.5576    0.7213 H   0  0  0  0  0  0  0  0  0  0  0  0
    1.3053    1.3230   -0.8866 H   0  0  0  0  0  0  0  0  0  0  0  0
    2.1290    0.2885    0.1803 H   0  0  0  0  0  0  0  0  0  0  0  0
    0.0000    0.0000    0.0000 C   0  0  0  0  0  0  0  0  0  0  0  0
    0.0078   -0.5739   -0.8165 H   0  0  0  0  0  0  0  0  0  0  0  0
    0.0076   -0.5743    0.8162 H   0  0  0  0  0  0  0  0  0  0  0  0
   -1.2317    0.8341    0.0000 N   0  0  0  0  0  4  0  0  0  0  0  0
   -2.0074    0.2806    0.3012 H   0  0  0  0  0  0  0  0  0  0  0  0
   -1.1096    1.6060    0.6232 H   0  0  0  0  0  0  0  0  0  0  0  0
   -1.4026    1.1745   -0.9243 H   0  0  0  0  0  0  0  0  0  0  0  0
   -3.8977    0.7127   -3.5931 C   0  0  0  0  0  0  0  0  0  0  0  0
   -4.0700    0.8665   -4.5903 H   0  0  0  0  0  0  0  0  0  0  0  0
   -4.8029    0.4628   -3.1880 H   0  0  0  0  0  0  0  0  0  0  0  0
   -3.2206   -0.1344   -3.4837 H   0  0  0  0  0  0  0  0  0  0  0  0
   -3.2385    2.1905   -2.8229 S   0  0  0  0  0  0  0  0  0  0  0  0
   -4.0943    2.1578   -1.2400 C   0  0  0  0  0  0  0  0  0  0  0  0
   -4.6134    3.0042   -1.1259 H   0  0  0  0  0  0  0  0  0  0  0  0
   -4.7180    1.3768   -1.2162 H   0  0  0  0  0  0  0  0  0  0  0  0
   -3.4243    2.0737   -0.5032 H   0  0  0  0  0  0  0  0  0  0  0  0
  1  5  1  0
  5  8  1  0
  1  2  1  0
  1  3  1  0
  1  4  1  0
  5  6  1  0
  5  7  1  0
  8  9  1  0
  8 10  1  0
  8 11  1  0
 12 16  1  0
 16 17  1  0
 12 13  1  0
 12 14  1  0
 12 15  1  0
 17 18  1  0
 17 19  1  0
 17 20  1  0
M  CHG  1   8   1
M  END
>  <PDB_ID>  (492) 
pdb2q6d

>  <RESIDUE_NAME>  (492) 
LYS   MET

>  <FRAG_NAME>  (492) 
ETAM   MSM

>  <FRAG_ATOM_NUM>  (492) 
fragi: 11  fragj: 9

>  <atom.prop.CHAIN_ID>  (492) 
A A A A A A A A A A A Z Z Z Z Z Z Z Z Z

>  <atom.prop.IS_HEAVY_ATOM>  (492) 
1 0 0 0 1 0 0 1 0 0 0 1 0 0 0 1 1 0 0 0

>  <DIFUSE_FUNC_ATOM>  (492) 
n/a

>  <FINAL_SINGLE_POINT_ENERGY>  (492) 
0

>  <NONCOV_INTER_ENERGY_QM>  (492) 
0

>  <FF_Energy>  (492) 
-1.8

>  <QM_Energy>  (492) 
-8.65

>  <source>  (492) 
ETAM_MSM

>  <Index>  (492) 
2787

$$$$
ETAM-pdb2q97-A-LYS-291:MSM-pdb2q97-A-MET-325
     RDKit          3D

 20 18  0  0  0  0  0  0  0  0999 V2000
    1.2827    0.8809   -0.0000 C   0  0  0  0  0  0  0  0  0  0  0  0
    1.2373    1.4915    0.7775 H   0  0  0  0  0  0  0  0  0  0  0  0
    1.3105    1.3856   -0.8504 H   0  0  0  0  0  0  0  0  0  0  0  0
    2.1891    0.2808    0.0804 H   0  0  0  0  0  0  0  0  0  0  0  0
    0.0000    0.0000    0.0000 C   0  0  0  0  0  0  0  0  0  0  0  0
    0.0221   -0.5872   -0.8160 H   0  0  0  0  0  0  0  0  0  0  0  0
    0.0220   -0.5873    0.8162 H   0  0  0  0  0  0  0  0  0  0  0  0
   -1.2827    0.7949   -0.0000 N   0  0  0  0  0  4  0  0  0  0  0  0
   -1.1307    1.6506   -0.4870 H   0  0  0  0  0  0  0  0  0  0  0  0
   -1.9902    0.2624   -0.4562 H   0  0  0  0  0  0  0  0  0  0  0  0
   -1.5462    0.9797    0.9424 H   0  0  0  0  0  0  0  0  0  0  0  0
   -0.2091    1.3998   -5.0026 C   0  0  0  0  0  0  0  0  0  0  0  0
    0.0198    0.8457   -5.8425 H   0  0  0  0  0  0  0  0  0  0  0  0
    0.1086    2.3550   -5.2275 H   0  0  0  0  0  0  0  0  0  0  0  0
   -1.2928    1.4149   -4.8857 H   0  0  0  0  0  0  0  0  0  0  0  0
    0.6567    0.7641   -3.5659 S   0  0  0  0  0  0  0  0  0  0  0  0
    0.2520   -0.9812   -3.5809 C   0  0  0  0  0  0  0  0  0  0  0  0
    0.9602   -1.4857   -4.0774 H   0  0  0  0  0  0  0  0  0  0  0  0
    0.1997   -1.3220   -2.6410 H   0  0  0  0  0  0  0  0  0  0  0  0
   -0.6312   -1.1168   -4.0326 H   0  0  0  0  0  0  0  0  0  0  0  0
  1  5  1  0
  5  8  1  0
  1  2  1  0
  1  3  1  0
  1  4  1  0
  5  6  1  0
  5  7  1  0
  8  9  1  0
  8 10  1  0
  8 11  1  0
 12 16  1  0
 16 17  1  0
 12 13  1  0
 12 14  1  0
 12 15  1  0
 17 18  1  0
 17 19  1  0
 17 20  1  0
M  CHG  1   8   1
M  END
>  <PDB_ID>  (493) 
pdb2q97

>  <RESIDUE_NAME>  (493) 
LYS   MET

>  <FRAG_NAME>  (493) 
ETAM   MSM

>  <FRAG_ATOM_NUM>  (493) 
fragi: 11  fragj: 9

>  <atom.prop.CHAIN_ID>  (493) 
A A A A A A A A A A A Z Z Z Z Z Z Z Z Z

>  <atom.prop.IS_HEAVY_ATOM>  (493) 
1 0 0 0 1 0 0 1 0 0 0 1 0 0 0 1 1 0 0 0

>  <DIFUSE_FUNC_ATOM>  (493) 
n/a

>  <FINAL_SINGLE_POINT_ENERGY>  (493) 
0

>  <NONCOV_INTER_ENERGY_QM>  (493) 
0

>  <FF_Energy>  (493) 
-2.62

>  <QM_Energy>  (493) 
-8.26

>  <source>  (493) 
ETAM_MSM

>  <Index>  (493) 
2795

$$$$
ETAM-pdb1mh9-A-LYS-143:MSM-pdb1mh9-A-MET-42
     RDKit          3D

 20 18  0  0  0  0  0  0  0  0999 V2000
    1.2391    0.9086   -0.0000 C   0  0  0  0  0  0  0  0  0  0  0  0
    2.0323    0.3679    0.2022 H   0  0  0  0  0  0  0  0  0  0  0  0
    1.1026    1.6346    0.6458 H   0  0  0  0  0  0  0  0  0  0  0  0
    1.3719    1.3511   -0.9873 H   0  0  0  0  0  0  0  0  0  0  0  0
    0.0000    0.0000    0.0000 C   0  0  0  0  0  0  0  0  0  0  0  0
   -0.0109   -0.5401   -0.8161 H   0  0  0  0  0  0  0  0  0  0  0  0
   -0.0105   -0.5403    0.8164 H   0  0  0  0  0  0  0  0  0  0  0  0
   -1.2391    0.9079   -0.0000 N   0  0  0  0  0  4  0  0  0  0  0  0
   -1.9305    0.4851    0.5729 H   0  0  0  0  0  0  0  0  0  0  0  0
   -0.9729    1.7919    0.3628 H   0  0  0  0  0  0  0  0  0  0  0  0
   -1.5592    0.9918   -0.9348 H   0  0  0  0  0  0  0  0  0  0  0  0
   -2.3850    4.8686    0.1247 C   0  0  0  0  0  0  0  0  0  0  0  0
   -2.7656    4.3370   -0.6699 H   0  0  0  0  0  0  0  0  0  0  0  0
   -2.6300    5.8489   -0.0680 H   0  0  0  0  0  0  0  0  0  0  0  0
   -2.7577    4.5184    1.0872 H   0  0  0  0  0  0  0  0  0  0  0  0
   -0.5174    4.7416    0.0246 S   0  0  0  0  0  0  0  0  0  0  0  0
   -0.4940    5.0504   -1.7193 C   0  0  0  0  0  0  0  0  0  0  0  0
    0.4246    5.3391   -2.0071 H   0  0  0  0  0  0  0  0  0  0  0  0
   -0.7435    4.2169   -2.2221 H   0  0  0  0  0  0  0  0  0  0  0  0
   -1.1488    5.7761   -1.9506 H   0  0  0  0  0  0  0  0  0  0  0  0
  1  5  1  0
  5  8  1  0
  1  2  1  0
  1  3  1  0
  1  4  1  0
  5  6  1  0
  5  7  1  0
  8  9  1  0
  8 10  1  0
  8 11  1  0
 12 16  1  0
 16 17  1  0
 12 13  1  0
 12 14  1  0
 12 15  1  0
 17 18  1  0
 17 19  1  0
 17 20  1  0
M  CHG  1   8   1
M  END
>  <PDB_ID>  (494) 
pdb1mh9

>  <RESIDUE_NAME>  (494) 
LYS   MET

>  <FRAG_NAME>  (494) 
ETAM   MSM

>  <FRAG_ATOM_NUM>  (494) 
fragi: 11  fragj: 9

>  <atom.prop.CHAIN_ID>  (494) 
A A A A A A A A A A A Z Z Z Z Z Z Z Z Z

>  <atom.prop.IS_HEAVY_ATOM>  (494) 
1 0 0 0 1 0 0 1 0 0 0 1 0 0 0 1 1 0 0 0

>  <DIFUSE_FUNC_ATOM>  (494) 
n/a

>  <FINAL_SINGLE_POINT_ENERGY>  (494) 
0

>  <NONCOV_INTER_ENERGY_QM>  (494) 
0

>  <FF_Energy>  (494) 
-3.75

>  <QM_Energy>  (494) 
-10.15

>  <source>  (494) 
ETAM_MSM

>  <Index>  (494) 
2808

$$$$
ETAM-pdb2qg7-E-LYS-168:MSM-pdb2qg7-E-MET-183
     RDKit          3D

 20 18  0  0  0  0  0  0  0  0999 V2000
    1.2594    0.8729   -0.0000 C   0  0  0  0  0  0  0  0  0  0  0  0
    1.2791    1.3946   -0.8433 H   0  0  0  0  0  0  0  0  0  0  0  0
    2.0518    0.2805    0.0679 H   0  0  0  0  0  0  0  0  0  0  0  0
    1.2606    1.5640    0.8428 H   0  0  0  0  0  0  0  0  0  0  0  0
    0.0000    0.0000    0.0000 C   0  0  0  0  0  0  0  0  0  0  0  0
    0.0018   -0.5747   -0.8164 H   0  0  0  0  0  0  0  0  0  0  0  0
    0.0014   -0.5752    0.8160 H   0  0  0  0  0  0  0  0  0  0  0  0
   -1.2594    0.8410   -0.0000 N   0  0  0  0  0  4  0  0  0  0  0  0
   -1.4667    1.1037   -0.9377 H   0  0  0  0  0  0  0  0  0  0  0  0
   -2.0034    0.3001    0.3789 H   0  0  0  0  0  0  0  0  0  0  0  0
   -1.1026    1.6503    0.5581 H   0  0  0  0  0  0  0  0  0  0  0  0
   -1.4566    3.7762   -1.8099 C   0  0  0  0  0  0  0  0  0  0  0  0
   -2.0211    4.2781   -2.4943 H   0  0  0  0  0  0  0  0  0  0  0  0
   -1.4093    2.8094   -2.1288 H   0  0  0  0  0  0  0  0  0  0  0  0
   -0.4497    4.1937   -1.8205 H   0  0  0  0  0  0  0  0  0  0  0  0
   -2.2347    3.8643   -0.1541 S   0  0  0  0  0  0  0  0  0  0  0  0
   -2.1705    5.6423    0.1529 C   0  0  0  0  0  0  0  0  0  0  0  0
   -1.8117    6.1033   -0.6576 H   0  0  0  0  0  0  0  0  0  0  0  0
   -3.0913    5.9757    0.3511 H   0  0  0  0  0  0  0  0  0  0  0  0
   -1.5735    5.8200    0.9331 H   0  0  0  0  0  0  0  0  0  0  0  0
  1  5  1  0
  5  8  1  0
  1  2  1  0
  1  3  1  0
  1  4  1  0
  5  6  1  0
  5  7  1  0
  8  9  1  0
  8 10  1  0
  8 11  1  0
 12 16  1  0
 16 17  1  0
 12 13  1  0
 12 14  1  0
 12 15  1  0
 17 18  1  0
 17 19  1  0
 17 20  1  0
M  CHG  1   8   1
M  END
>  <PDB_ID>  (495) 
pdb2qg7

>  <RESIDUE_NAME>  (495) 
LYS   MET

>  <FRAG_NAME>  (495) 
ETAM   MSM

>  <FRAG_ATOM_NUM>  (495) 
fragi: 11  fragj: 9

>  <atom.prop.CHAIN_ID>  (495) 
A A A A A A A A A A A Z Z Z Z Z Z Z Z Z

>  <atom.prop.IS_HEAVY_ATOM>  (495) 
1 0 0 0 1 0 0 1 0 0 0 1 0 0 0 1 1 0 0 0

>  <DIFUSE_FUNC_ATOM>  (495) 
n/a

>  <FINAL_SINGLE_POINT_ENERGY>  (495) 
0

>  <NONCOV_INTER_ENERGY_QM>  (495) 
0

>  <FF_Energy>  (495) 
-4.06

>  <QM_Energy>  (495) 
-11.43

>  <source>  (495) 
ETAM_MSM

>  <Index>  (495) 
2822

$$$$
ETAM-pdb1mrz-A-LYS-252:MSM-pdb1mrz-A-MET-280
     RDKit          3D

 20 18  0  0  0  0  0  0  0  0999 V2000
    1.2541    0.8552   -0.0000 C   0  0  0  0  0  0  0  0  0  0  0  0
    1.2781    1.3893    0.8378 H   0  0  0  0  0  0  0  0  0  0  0  0
    1.2338    1.4525   -0.7935 H   0  0  0  0  0  0  0  0  0  0  0  0
    2.1536    0.2414   -0.0473 H   0  0  0  0  0  0  0  0  0  0  0  0
    0.0000    0.0000    0.0000 C   0  0  0  0  0  0  0  0  0  0  0  0
    0.0039   -0.5877   -0.8163 H   0  0  0  0  0  0  0  0  0  0  0  0
    0.0030   -0.5883    0.8157 H   0  0  0  0  0  0  0  0  0  0  0  0
   -1.2541    0.8190    0.0000 N   0  0  0  0  0  4  0  0  0  0  0  0
   -1.4057    1.1841    0.9163 H   0  0  0  0  0  0  0  0  0  0  0  0
   -1.1548    1.5686   -0.6515 H   0  0  0  0  0  0  0  0  0  0  0  0
   -2.0226    0.2404   -0.2651 H   0  0  0  0  0  0  0  0  0  0  0  0
   -1.6157    3.7588   -3.3419 C   0  0  0  0  0  0  0  0  0  0  0  0
   -2.3803    3.8191   -2.6494 H   0  0  0  0  0  0  0  0  0  0  0  0
   -2.0748    3.9548   -4.2468 H   0  0  0  0  0  0  0  0  0  0  0  0
   -0.9172    4.5705   -3.1384 H   0  0  0  0  0  0  0  0  0  0  0  0
   -0.8713    2.1278   -3.3382 S   0  0  0  0  0  0  0  0  0  0  0  0
   -0.1926    2.0120   -4.9997 C   0  0  0  0  0  0  0  0  0  0  0  0
   -0.1038    1.0494   -5.2560 H   0  0  0  0  0  0  0  0  0  0  0  0
   -0.8053    2.4734   -5.6418 H   0  0  0  0  0  0  0  0  0  0  0  0
    0.7064    2.4486   -5.0224 H   0  0  0  0  0  0  0  0  0  0  0  0
  1  5  1  0
  5  8  1  0
  1  2  1  0
  1  3  1  0
  1  4  1  0
  5  6  1  0
  5  7  1  0
  8  9  1  0
  8 10  1  0
  8 11  1  0
 12 16  1  0
 16 17  1  0
 12 13  1  0
 12 14  1  0
 12 15  1  0
 17 18  1  0
 17 19  1  0
 17 20  1  0
M  CHG  1   8   1
M  END
>  <PDB_ID>  (496) 
pdb1mrz

>  <RESIDUE_NAME>  (496) 
LYS   MET

>  <FRAG_NAME>  (496) 
ETAM   MSM

>  <FRAG_ATOM_NUM>  (496) 
fragi: 11  fragj: 9

>  <atom.prop.CHAIN_ID>  (496) 
A A A A A A A A A A A Z Z Z Z Z Z Z Z Z

>  <atom.prop.IS_HEAVY_ATOM>  (496) 
1 0 0 0 1 0 0 1 0 0 0 1 0 0 0 1 1 0 0 0

>  <DIFUSE_FUNC_ATOM>  (496) 
n/a

>  <FINAL_SINGLE_POINT_ENERGY>  (496) 
0

>  <NONCOV_INTER_ENERGY_QM>  (496) 
0

>  <FF_Energy>  (496) 
-5.69

>  <QM_Energy>  (496) 
-12.55

>  <source>  (496) 
ETAM_MSM

>  <Index>  (496) 
2834

$$$$
ETAM-pdb1mt7-A-LYS-20:MSM-pdb1mt7-A-MET-36
     RDKit          3D

 20 18  0  0  0  0  0  0  0  0999 V2000
    1.2409    0.8704   -0.0000 C   0  0  0  0  0  0  0  0  0  0  0  0
    1.2816    1.3675    0.8588 H   0  0  0  0  0  0  0  0  0  0  0  0
    1.1894    1.4989   -0.7665 H   0  0  0  0  0  0  0  0  0  0  0  0
    2.1407    0.2634   -0.0996 H   0  0  0  0  0  0  0  0  0  0  0  0
    0.0000    0.0000    0.0000 C   0  0  0  0  0  0  0  0  0  0  0  0
    0.0145   -0.5869   -0.8159 H   0  0  0  0  0  0  0  0  0  0  0  0
    0.0145   -0.5872    0.8160 H   0  0  0  0  0  0  0  0  0  0  0  0
   -1.2409    0.8066    0.0000 N   0  0  0  0  0  4  0  0  0  0  0  0
   -1.2350    1.4312    0.7822 H   0  0  0  0  0  0  0  0  0  0  0  0
   -1.2967    1.3368   -0.8472 H   0  0  0  0  0  0  0  0  0  0  0  0
   -2.0356    0.2011    0.0649 H   0  0  0  0  0  0  0  0  0  0  0  0
   -4.0134    1.9600    2.2459 C   0  0  0  0  0  0  0  0  0  0  0  0
   -4.4281    2.8734    1.9992 H   0  0  0  0  0  0  0  0  0  0  0  0
   -4.5247    1.6648    3.0937 H   0  0  0  0  0  0  0  0  0  0  0  0
   -4.2565    1.2578    1.4485 H   0  0  0  0  0  0  0  0  0  0  0  0
   -2.2492    2.1259    2.5841 S   0  0  0  0  0  0  0  0  0  0  0  0
   -1.8740    0.4839    3.2131 C   0  0  0  0  0  0  0  0  0  0  0  0
   -2.7009   -0.0782    3.1896 H   0  0  0  0  0  0  0  0  0  0  0  0
   -1.1674    0.0634    2.6443 H   0  0  0  0  0  0  0  0  0  0  0  0
   -1.5466    0.5552    4.1550 H   0  0  0  0  0  0  0  0  0  0  0  0
  1  5  1  0
  5  8  1  0
  1  2  1  0
  1  3  1  0
  1  4  1  0
  5  6  1  0
  5  7  1  0
  8  9  1  0
  8 10  1  0
  8 11  1  0
 12 16  1  0
 16 17  1  0
 12 13  1  0
 12 14  1  0
 12 15  1  0
 17 18  1  0
 17 19  1  0
 17 20  1  0
M  CHG  1   8   1
M  END
>  <PDB_ID>  (497) 
pdb1mt7

>  <RESIDUE_NAME>  (497) 
LYS   MET

>  <FRAG_NAME>  (497) 
ETAM   MSM

>  <FRAG_ATOM_NUM>  (497) 
fragi: 11  fragj: 9

>  <atom.prop.CHAIN_ID>  (497) 
A A A A A A A A A A A Z Z Z Z Z Z Z Z Z

>  <atom.prop.IS_HEAVY_ATOM>  (497) 
1 0 0 0 1 0 0 1 0 0 0 1 0 0 0 1 1 0 0 0

>  <DIFUSE_FUNC_ATOM>  (497) 
n/a

>  <FINAL_SINGLE_POINT_ENERGY>  (497) 
0

>  <NONCOV_INTER_ENERGY_QM>  (497) 
0

>  <FF_Energy>  (497) 
-2.73

>  <QM_Energy>  (497) 
-12.98

>  <source>  (497) 
ETAM_MSM

>  <Index>  (497) 
2839

$$$$
ETAM-pdb1mr5-A-LYS-206:MSM-pdb1mr5-A-MET-167
     RDKit          3D

 20 18  0  0  0  0  0  0  0  0999 V2000
    1.2829    0.8164   -0.0000 C   0  0  0  0  0  0  0  0  0  0  0  0
    2.0233    0.2738    0.4277 H   0  0  0  0  0  0  0  0  0  0  0  0
    1.1493    1.6472    0.5642 H   0  0  0  0  0  0  0  0  0  0  0  0
    1.6612    1.1523   -0.9655 H   0  0  0  0  0  0  0  0  0  0  0  0
    0.0000    0.0000    0.0000 C   0  0  0  0  0  0  0  0  0  0  0  0
    0.0127   -0.6227   -0.8160 H   0  0  0  0  0  0  0  0  0  0  0  0
    0.0123   -0.6228    0.8164 H   0  0  0  0  0  0  0  0  0  0  0  0
   -1.2829    0.7546    0.0000 N   0  0  0  0  0  4  0  0  0  0  0  0
   -2.0211    0.1532   -0.3043 H   0  0  0  0  0  0  0  0  0  0  0  0
   -1.4759    1.0797    0.9253 H   0  0  0  0  0  0  0  0  0  0  0  0
   -1.2091    1.5343   -0.6206 H   0  0  0  0  0  0  0  0  0  0  0  0
    0.9308   -3.6337    1.7751 C   0  0  0  0  0  0  0  0  0  0  0  0
    0.5904   -3.0585    2.5682 H   0  0  0  0  0  0  0  0  0  0  0  0
    1.4843   -4.3819    2.2330 H   0  0  0  0  0  0  0  0  0  0  0  0
    0.0706   -4.0898    1.2852 H   0  0  0  0  0  0  0  0  0  0  0  0
    2.0410   -2.6122    0.7013 S   0  0  0  0  0  0  0  0  0  0  0  0
    2.8818   -1.6609    1.9485 C   0  0  0  0  0  0  0  0  0  0  0  0
    3.1309   -0.7611    1.5819 H   0  0  0  0  0  0  0  0  0  0  0  0
    2.2833   -1.5357    2.7441 H   0  0  0  0  0  0  0  0  0  0  0  0
    3.7153   -2.1376    2.2379 H   0  0  0  0  0  0  0  0  0  0  0  0
  1  5  1  0
  5  8  1  0
  1  2  1  0
  1  3  1  0
  1  4  1  0
  5  6  1  0
  5  7  1  0
  8  9  1  0
  8 10  1  0
  8 11  1  0
 12 16  1  0
 16 17  1  0
 12 13  1  0
 12 14  1  0
 12 15  1  0
 17 18  1  0
 17 19  1  0
 17 20  1  0
M  CHG  1   8   1
M  END
>  <PDB_ID>  (498) 
pdb1mr5

>  <RESIDUE_NAME>  (498) 
LYS   MET

>  <FRAG_NAME>  (498) 
ETAM   MSM

>  <FRAG_ATOM_NUM>  (498) 
fragi: 11  fragj: 9

>  <atom.prop.CHAIN_ID>  (498) 
A A A A A A A A A A A Z Z Z Z Z Z Z Z Z

>  <atom.prop.IS_HEAVY_ATOM>  (498) 
1 0 0 0 1 0 0 1 0 0 0 1 0 0 0 1 1 0 0 0

>  <DIFUSE_FUNC_ATOM>  (498) 
n/a

>  <FINAL_SINGLE_POINT_ENERGY>  (498) 
0

>  <NONCOV_INTER_ENERGY_QM>  (498) 
0

>  <FF_Energy>  (498) 
-0.66

>  <QM_Energy>  (498) 
-5.86

>  <source>  (498) 
ETAM_MSM

>  <Index>  (498) 
2840

$$$$
ETAM-pdb2qkd-A-LYS-299:MSM-pdb2qkd-A-MET-284
     RDKit          3D

 20 18  0  0  0  0  0  0  0  0999 V2000
    1.2615    0.8601   -0.0000 C   0  0  0  0  0  0  0  0  0  0  0  0
    1.2357    1.4526    0.7898 H   0  0  0  0  0  0  0  0  0  0  0  0
    1.2872    1.3758   -0.8409 H   0  0  0  0  0  0  0  0  0  0  0  0
    2.1415    0.2195    0.0588 H   0  0  0  0  0  0  0  0  0  0  0  0
    0.0000    0.0000    0.0000 C   0  0  0  0  0  0  0  0  0  0  0  0
    0.0123   -0.5930   -0.8164 H   0  0  0  0  0  0  0  0  0  0  0  0
    0.0118   -0.5928    0.8159 H   0  0  0  0  0  0  0  0  0  0  0  0
   -1.2615    0.8008   -0.0000 N   0  0  0  0  0  4  0  0  0  0  0  0
   -1.7565    0.6343   -0.8510 H   0  0  0  0  0  0  0  0  0  0  0  0
   -1.8250    0.5258    0.7770 H   0  0  0  0  0  0  0  0  0  0  0  0
   -1.0349    1.7705    0.0749 H   0  0  0  0  0  0  0  0  0  0  0  0
   -0.4002   -1.9381    4.2395 C   0  0  0  0  0  0  0  0  0  0  0  0
   -0.8559   -1.7990    5.1576 H   0  0  0  0  0  0  0  0  0  0  0  0
    0.6037   -2.0422    4.4669 H   0  0  0  0  0  0  0  0  0  0  0  0
   -0.7574   -2.8780    3.8185 H   0  0  0  0  0  0  0  0  0  0  0  0
   -0.6648   -0.5149    3.1788 S   0  0  0  0  0  0  0  0  0  0  0  0
   -2.4592   -0.4287    3.1559 C   0  0  0  0  0  0  0  0  0  0  0  0
   -2.8255   -0.8953    3.9613 H   0  0  0  0  0  0  0  0  0  0  0  0
   -2.7468    0.5295    3.1659 H   0  0  0  0  0  0  0  0  0  0  0  0
   -2.8038   -0.8721    2.3277 H   0  0  0  0  0  0  0  0  0  0  0  0
  1  5  1  0
  5  8  1  0
  1  2  1  0
  1  3  1  0
  1  4  1  0
  5  6  1  0
  5  7  1  0
  8  9  1  0
  8 10  1  0
  8 11  1  0
 12 16  1  0
 16 17  1  0
 12 13  1  0
 12 14  1  0
 12 15  1  0
 17 18  1  0
 17 19  1  0
 17 20  1  0
M  CHG  1   8   1
M  END
>  <PDB_ID>  (499) 
pdb2qkd

>  <RESIDUE_NAME>  (499) 
LYS   MET

>  <FRAG_NAME>  (499) 
ETAM   MSM

>  <FRAG_ATOM_NUM>  (499) 
fragi: 11  fragj: 9

>  <atom.prop.CHAIN_ID>  (499) 
A A A A A A A A A A A Z Z Z Z Z Z Z Z Z

>  <atom.prop.IS_HEAVY_ATOM>  (499) 
1 0 0 0 1 0 0 1 0 0 0 1 0 0 0 1 1 0 0 0

>  <DIFUSE_FUNC_ATOM>  (499) 
n/a

>  <FINAL_SINGLE_POINT_ENERGY>  (499) 
0

>  <NONCOV_INTER_ENERGY_QM>  (499) 
0

>  <FF_Energy>  (499) 
-0.98

>  <QM_Energy>  (499) 
-8.02

>  <source>  (499) 
ETAM_MSM

>  <Index>  (499) 
2841

$$$$
ETAM-pdb1mvp-A-LYS-75:MSM-pdb1mvp-A-MET-57
     RDKit          3D

 20 18  0  0  0  0  0  0  0  0999 V2000
    1.2485    0.8786   -0.0000 C   0  0  0  0  0  0  0  0  0  0  0  0
    2.0461    0.2935   -0.1253 H   0  0  0  0  0  0  0  0  0  0  0  0
    1.3049    1.3470    0.8780 H   0  0  0  0  0  0  0  0  0  0  0  0
    1.2301    1.6229   -0.7961 H   0  0  0  0  0  0  0  0  0  0  0  0
    0.0000    0.0000    0.0000 C   0  0  0  0  0  0  0  0  0  0  0  0
   -0.0004   -0.5692   -0.8163 H   0  0  0  0  0  0  0  0  0  0  0  0
   -0.0009   -0.5694    0.8165 H   0  0  0  0  0  0  0  0  0  0  0  0
   -1.2485    0.8523    0.0000 N   0  0  0  0  0  4  0  0  0  0  0  0
   -1.1402    1.5787    0.6727 H   0  0  0  0  0  0  0  0  0  0  0  0
   -1.3709    1.2405   -0.9091 H   0  0  0  0  0  0  0  0  0  0  0  0
   -2.0275    0.2788    0.2356 H   0  0  0  0  0  0  0  0  0  0  0  0
   -2.2281    6.2215   -0.2108 C   0  0  0  0  0  0  0  0  0  0  0  0
   -2.9534    6.8852   -0.0772 H   0  0  0  0  0  0  0  0  0  0  0  0
   -2.0113    6.1275   -1.1746 H   0  0  0  0  0  0  0  0  0  0  0  0
   -1.3416    6.5008    0.3586 H   0  0  0  0  0  0  0  0  0  0  0  0
   -2.7688    4.5812    0.4571 S   0  0  0  0  0  0  0  0  0  0  0  0
   -1.1510    3.7974    0.6628 C   0  0  0  0  0  0  0  0  0  0  0  0
   -0.4688    4.3165    0.1515 H   0  0  0  0  0  0  0  0  0  0  0  0
   -0.9129    3.7882    1.6322 H   0  0  0  0  0  0  0  0  0  0  0  0
   -1.1939    2.8623    0.3162 H   0  0  0  0  0  0  0  0  0  0  0  0
  1  5  1  0
  5  8  1  0
  1  2  1  0
  1  3  1  0
  1  4  1  0
  5  6  1  0
  5  7  1  0
  8  9  1  0
  8 10  1  0
  8 11  1  0
 12 16  1  0
 16 17  1  0
 12 13  1  0
 12 14  1  0
 12 15  1  0
 17 18  1  0
 17 19  1  0
 17 20  1  0
M  CHG  1   8   1
M  END
>  <PDB_ID>  (500) 
pdb1mvp

>  <RESIDUE_NAME>  (500) 
LYS   MET

>  <FRAG_NAME>  (500) 
ETAM   MSM

>  <FRAG_ATOM_NUM>  (500) 
fragi: 11  fragj: 9

>  <atom.prop.CHAIN_ID>  (500) 
A A A A A A A A A A A Z Z Z Z Z Z Z Z Z

>  <atom.prop.IS_HEAVY_ATOM>  (500) 
1 0 0 0 1 0 0 1 0 0 0 1 0 0 0 1 1 0 0 0

>  <DIFUSE_FUNC_ATOM>  (500) 
n/a

>  <FINAL_SINGLE_POINT_ENERGY>  (500) 
0

>  <NONCOV_INTER_ENERGY_QM>  (500) 
0

>  <FF_Energy>  (500) 
15.13

>  <QM_Energy>  (500) 
6.79

>  <source>  (500) 
ETAM_MSM

>  <Index>  (500) 
2851

$$$$
ETAM-pdb1mhy-D-LYS-65:MSM-pdb1mhy-B-MET-195
     RDKit          3D

 20 18  0  0  0  0  0  0  0  0999 V2000
    1.2534    0.8876   -0.0000 C   0  0  0  0  0  0  0  0  0  0  0  0
    2.0196    0.3378    0.2872 H   0  0  0  0  0  0  0  0  0  0  0  0
    1.0950    1.6441    0.6123 H   0  0  0  0  0  0  0  0  0  0  0  0
    1.4330    1.2641   -1.0070 H   0  0  0  0  0  0  0  0  0  0  0  0
    0.0000    0.0000    0.0000 C   0  0  0  0  0  0  0  0  0  0  0  0
    0.0099   -0.5720   -0.8162 H   0  0  0  0  0  0  0  0  0  0  0  0
    0.0094   -0.5718    0.8165 H   0  0  0  0  0  0  0  0  0  0  0  0
   -1.2534    0.8355    0.0000 N   0  0  0  0  0  4  0  0  0  0  0  0
   -1.2721    1.4302   -0.8495 H   0  0  0  0  0  0  0  0  0  0  0  0
   -2.0768    0.1993    0.0031 H   0  0  0  0  0  0  0  0  0  0  0  0
   -1.2775    1.4157    0.8620 H   0  0  0  0  0  0  0  0  0  0  0  0
   -3.2837    1.3153   -3.0729 C   0  0  0  0  0  0  0  0  0  0  0  0
   -3.1574    2.2823   -2.7775 H   0  0  0  0  0  0  0  0  0  0  0  0
   -3.6395    0.8102   -2.2617 H   0  0  0  0  0  0  0  0  0  0  0  0
   -4.0693    1.3090   -3.8285 H   0  0  0  0  0  0  0  0  0  0  0  0
   -1.7528    0.6003   -3.6807 S   0  0  0  0  0  0  0  0  0  0  0  0
   -2.1508   -1.1250   -3.5884 C   0  0  0  0  0  0  0  0  0  0  0  0
   -1.5231   -1.5904   -2.9582 H   0  0  0  0  0  0  0  0  0  0  0  0
   -3.0911   -1.2454   -3.2570 H   0  0  0  0  0  0  0  0  0  0  0  0
   -2.0707   -1.5461   -4.4963 H   0  0  0  0  0  0  0  0  0  0  0  0
  1  5  1  0
  5  8  1  0
  1  2  1  0
  1  3  1  0
  1  4  1  0
  5  6  1  0
  5  7  1  0
  8  9  1  0
  8 10  1  0
  8 11  1  0
 12 16  1  0
 16 17  1  0
 12 13  1  0
 12 14  1  0
 12 15  1  0
 17 18  1  0
 17 19  1  0
 17 20  1  0
M  CHG  1   8   1
M  END
>  <PDB_ID>  (501) 
pdb1mhy

>  <RESIDUE_NAME>  (501) 
LYS   MET

>  <FRAG_NAME>  (501) 
ETAM   MSM

>  <FRAG_ATOM_NUM>  (501) 
fragi: 11  fragj: 9

>  <atom.prop.CHAIN_ID>  (501) 
A A A A A A A A A A A Z Z Z Z Z Z Z Z Z

>  <atom.prop.IS_HEAVY_ATOM>  (501) 
1 0 0 0 1 0 0 1 0 0 0 1 0 0 0 1 1 0 0 0

>  <DIFUSE_FUNC_ATOM>  (501) 
n/a

>  <FINAL_SINGLE_POINT_ENERGY>  (501) 
0

>  <NONCOV_INTER_ENERGY_QM>  (501) 
0

>  <FF_Energy>  (501) 
-3.53

>  <QM_Energy>  (501) 
-9.33

>  <source>  (501) 
ETAM_MSM

>  <Index>  (501) 
2855

$$$$
ETAM-pdb1n1a-A-LYS-98:MSM-pdb1n1a-A-MET-46
     RDKit          3D

 20 18  0  0  0  0  0  0  0  0999 V2000
    1.2290    0.8833    0.0000 C   0  0  0  0  0  0  0  0  0  0  0  0
    1.1311    1.5684    0.7380 H   0  0  0  0  0  0  0  0  0  0  0  0
    1.2646    1.3827   -0.8791 H   0  0  0  0  0  0  0  0  0  0  0  0
    2.1769    0.3635    0.1390 H   0  0  0  0  0  0  0  0  0  0  0  0
    0.0000    0.0000    0.0000 C   0  0  0  0  0  0  0  0  0  0  0  0
   -0.0167   -0.5517   -0.8166 H   0  0  0  0  0  0  0  0  0  0  0  0
   -0.0163   -0.5524    0.8162 H   0  0  0  0  0  0  0  0  0  0  0  0
   -1.2290    0.8975    0.0000 N   0  0  0  0  0  4  0  0  0  0  0  0
   -1.4781    1.0894   -0.9427 H   0  0  0  0  0  0  0  0  0  0  0  0
   -1.9669    0.4201    0.4652 H   0  0  0  0  0  0  0  0  0  0  0  0
   -1.0039    1.7396    0.4781 H   0  0  0  0  0  0  0  0  0  0  0  0
    1.3433   -0.5054    4.1926 C   0  0  0  0  0  0  0  0  0  0  0  0
    1.9757    0.2015    3.8270 H   0  0  0  0  0  0  0  0  0  0  0  0
    1.6176   -1.3913    3.7759 H   0  0  0  0  0  0  0  0  0  0  0  0
    1.4718   -0.5682    5.2732 H   0  0  0  0  0  0  0  0  0  0  0  0
   -0.3875   -0.1024    3.7407 S   0  0  0  0  0  0  0  0  0  0  0  0
   -1.0968   -1.8178    3.8363 C   0  0  0  0  0  0  0  0  0  0  0  0
   -1.6142   -1.8842    4.6785 H   0  0  0  0  0  0  0  0  0  0  0  0
   -1.6808   -1.9476    3.0475 H   0  0  0  0  0  0  0  0  0  0  0  0
   -0.3408   -2.4581    3.8307 H   0  0  0  0  0  0  0  0  0  0  0  0
  1  5  1  0
  5  8  1  0
  1  2  1  0
  1  3  1  0
  1  4  1  0
  5  6  1  0
  5  7  1  0
  8  9  1  0
  8 10  1  0
  8 11  1  0
 12 16  1  0
 16 17  1  0
 12 13  1  0
 12 14  1  0
 12 15  1  0
 17 18  1  0
 17 19  1  0
 17 20  1  0
M  CHG  1   8   1
M  END
>  <PDB_ID>  (502) 
pdb1n1a

>  <RESIDUE_NAME>  (502) 
LYS   MET

>  <FRAG_NAME>  (502) 
ETAM   MSM

>  <FRAG_ATOM_NUM>  (502) 
fragi: 11  fragj: 9

>  <atom.prop.CHAIN_ID>  (502) 
A A A A A A A A A A A Z Z Z Z Z Z Z Z Z

>  <atom.prop.IS_HEAVY_ATOM>  (502) 
1 0 0 0 1 0 0 1 0 0 0 1 0 0 0 1 1 0 0 0

>  <DIFUSE_FUNC_ATOM>  (502) 
n/a

>  <FINAL_SINGLE_POINT_ENERGY>  (502) 
0

>  <NONCOV_INTER_ENERGY_QM>  (502) 
0

>  <FF_Energy>  (502) 
-4.47

>  <QM_Energy>  (502) 
-9.99

>  <source>  (502) 
ETAM_MSM

>  <Index>  (502) 
2872

$$$$
ETAM-pdb2qx5-A-LYS-275:MSM-pdb2qx5-A-MET-441
     RDKit          3D

 20 18  0  0  0  0  0  0  0  0999 V2000
    1.2253    0.8657   -0.0000 C   0  0  0  0  0  0  0  0  0  0  0  0
    1.2410    1.4020    0.8441 H   0  0  0  0  0  0  0  0  0  0  0  0
    1.1843    1.4828   -0.7857 H   0  0  0  0  0  0  0  0  0  0  0  0
    2.1393    0.2750   -0.0608 H   0  0  0  0  0  0  0  0  0  0  0  0
    0.0000    0.0000    0.0000 C   0  0  0  0  0  0  0  0  0  0  0  0
    0.0012   -0.5789   -0.8168 H   0  0  0  0  0  0  0  0  0  0  0  0
    0.0006   -0.5787    0.8161 H   0  0  0  0  0  0  0  0  0  0  0  0
   -1.2253    0.8356    0.0000 N   0  0  0  0  0  4  0  0  0  0  0  0
   -1.3879    1.1909    0.9208 H   0  0  0  0  0  0  0  0  0  0  0  0
   -1.1086    1.5990   -0.6356 H   0  0  0  0  0  0  0  0  0  0  0  0
   -2.0077    0.2814   -0.2856 H   0  0  0  0  0  0  0  0  0  0  0  0
    2.0602   -0.0753    4.7496 C   0  0  0  0  0  0  0  0  0  0  0  0
    2.7961   -0.0460    4.0353 H   0  0  0  0  0  0  0  0  0  0  0  0
    2.4631   -0.5954    5.5365 H   0  0  0  0  0  0  0  0  0  0  0  0
    1.8562    0.9442    5.0770 H   0  0  0  0  0  0  0  0  0  0  0  0
    0.5920   -0.9107    4.1182 S   0  0  0  0  0  0  0  0  0  0  0  0
    1.2585   -1.7091    2.6597 C   0  0  0  0  0  0  0  0  0  0  0  0
    0.7681   -2.5655    2.4925 H   0  0  0  0  0  0  0  0  0  0  0  0
    1.1519   -1.1052    1.8685 H   0  0  0  0  0  0  0  0  0  0  0  0
    2.2303   -1.9052    2.7991 H   0  0  0  0  0  0  0  0  0  0  0  0
  1  5  1  0
  5  8  1  0
  1  2  1  0
  1  3  1  0
  1  4  1  0
  5  6  1  0
  5  7  1  0
  8  9  1  0
  8 10  1  0
  8 11  1  0
 12 16  1  0
 16 17  1  0
 12 13  1  0
 12 14  1  0
 12 15  1  0
 17 18  1  0
 17 19  1  0
 17 20  1  0
M  CHG  1   8   1
M  END
>  <PDB_ID>  (503) 
pdb2qx5

>  <RESIDUE_NAME>  (503) 
LYS   MET

>  <FRAG_NAME>  (503) 
ETAM   MSM

>  <FRAG_ATOM_NUM>  (503) 
fragi: 11  fragj: 9

>  <atom.prop.CHAIN_ID>  (503) 
A A A A A A A A A A A Z Z Z Z Z Z Z Z Z

>  <atom.prop.IS_HEAVY_ATOM>  (503) 
1 0 0 0 1 0 0 1 0 0 0 1 0 0 0 1 1 0 0 0

>  <DIFUSE_FUNC_ATOM>  (503) 
n/a

>  <FINAL_SINGLE_POINT_ENERGY>  (503) 
0

>  <NONCOV_INTER_ENERGY_QM>  (503) 
0

>  <FF_Energy>  (503) 
9.67

>  <QM_Energy>  (503) 
-1.46

>  <source>  (503) 
ETAM_MSM

>  <Index>  (503) 
2902

$$$$
ETAM-pdb1n4q-B-LYS-235:MSM-pdb1n4q-B-MET-193
     RDKit          3D

 20 18  0  0  0  0  0  0  0  0999 V2000
    1.2404    0.8773    0.0000 C   0  0  0  0  0  0  0  0  0  0  0  0
    1.2697    1.3834   -0.8530 H   0  0  0  0  0  0  0  0  0  0  0  0
    2.0394    0.2955    0.0917 H   0  0  0  0  0  0  0  0  0  0  0  0
    1.2146    1.5821    0.8311 H   0  0  0  0  0  0  0  0  0  0  0  0
    0.0000    0.0000    0.0000 C   0  0  0  0  0  0  0  0  0  0  0  0
    0.0086   -0.5776   -0.8162 H   0  0  0  0  0  0  0  0  0  0  0  0
    0.0086   -0.5777    0.8161 H   0  0  0  0  0  0  0  0  0  0  0  0
   -1.2404    0.8279   -0.0000 N   0  0  0  0  0  4  0  0  0  0  0  0
   -1.4202    1.1528   -0.9276 H   0  0  0  0  0  0  0  0  0  0  0  0
   -2.0082    0.2719    0.3164 H   0  0  0  0  0  0  0  0  0  0  0  0
   -1.1168    1.6082    0.6112 H   0  0  0  0  0  0  0  0  0  0  0  0
    0.3029    2.6300   -4.7658 C   0  0  0  0  0  0  0  0  0  0  0  0
    1.1102    2.0481   -4.5105 H   0  0  0  0  0  0  0  0  0  0  0  0
    0.6910    3.5618   -4.9560 H   0  0  0  0  0  0  0  0  0  0  0  0
   -0.1370    2.2379   -5.6828 H   0  0  0  0  0  0  0  0  0  0  0  0
   -0.8787    2.7019   -3.4098 S   0  0  0  0  0  0  0  0  0  0  0  0
   -2.2864    3.5185   -4.2071 C   0  0  0  0  0  0  0  0  0  0  0  0
   -3.0464    3.5592   -3.5618 H   0  0  0  0  0  0  0  0  0  0  0  0
   -2.0180    4.4404   -4.4754 H   0  0  0  0  0  0  0  0  0  0  0  0
   -2.5533    2.9944   -5.0127 H   0  0  0  0  0  0  0  0  0  0  0  0
  1  5  1  0
  5  8  1  0
  1  2  1  0
  1  3  1  0
  1  4  1  0
  5  6  1  0
  5  7  1  0
  8  9  1  0
  8 10  1  0
  8 11  1  0
 12 16  1  0
 16 17  1  0
 12 13  1  0
 12 14  1  0
 12 15  1  0
 17 18  1  0
 17 19  1  0
 17 20  1  0
M  CHG  1   8   1
M  END
>  <PDB_ID>  (504) 
pdb1n4q

>  <RESIDUE_NAME>  (504) 
LYS   MET

>  <FRAG_NAME>  (504) 
ETAM   MSM

>  <FRAG_ATOM_NUM>  (504) 
fragi: 11  fragj: 9

>  <atom.prop.CHAIN_ID>  (504) 
A A A A A A A A A A A Z Z Z Z Z Z Z Z Z

>  <atom.prop.IS_HEAVY_ATOM>  (504) 
1 0 0 0 1 0 0 1 0 0 0 1 0 0 0 1 1 0 0 0

>  <DIFUSE_FUNC_ATOM>  (504) 
n/a

>  <FINAL_SINGLE_POINT_ENERGY>  (504) 
0

>  <NONCOV_INTER_ENERGY_QM>  (504) 
0

>  <FF_Energy>  (504) 
-5.02

>  <QM_Energy>  (504) 
-11.81

>  <source>  (504) 
ETAM_MSM

>  <Index>  (504) 
2904

$$$$
ETAM-pdb2qya-B-LYS-56:MSM-pdb2qya-B-MET-48
     RDKit          3D

 20 18  0  0  0  0  0  0  0  0999 V2000
    1.3081    0.8657    0.0000 C   0  0  0  0  0  0  0  0  0  0  0  0
    1.1124    1.6954    0.4965 H   0  0  0  0  0  0  0  0  0  0  0  0
    1.5407    1.0476   -0.9411 H   0  0  0  0  0  0  0  0  0  0  0  0
    2.1225    0.3280    0.4854 H   0  0  0  0  0  0  0  0  0  0  0  0
    0.0000    0.0000    0.0000 C   0  0  0  0  0  0  0  0  0  0  0  0
    0.0179   -0.5936   -0.8165 H   0  0  0  0  0  0  0  0  0  0  0  0
    0.0178   -0.5943    0.8161 H   0  0  0  0  0  0  0  0  0  0  0  0
   -1.3081    0.7898    0.0000 N   0  0  0  0  0  4  0  0  0  0  0  0
   -2.0483    0.1677   -0.2267 H   0  0  0  0  0  0  0  0  0  0  0  0
   -1.4401    1.1751    0.9060 H   0  0  0  0  0  0  0  0  0  0  0  0
   -1.2365    1.5104   -0.6793 H   0  0  0  0  0  0  0  0  0  0  0  0
   -0.1783    6.2625    1.7324 C   0  0  0  0  0  0  0  0  0  0  0  0
   -0.0030    7.1690    1.2605 H   0  0  0  0  0  0  0  0  0  0  0  0
    0.2973    6.3623    2.6482 H   0  0  0  0  0  0  0  0  0  0  0  0
   -1.2499    6.1647    1.9063 H   0  0  0  0  0  0  0  0  0  0  0  0
    0.5707    4.9081    0.7842 S   0  0  0  0  0  0  0  0  0  0  0  0
   -0.0599    3.4648    1.4596 C   0  0  0  0  0  0  0  0  0  0  0  0
   -1.0354    3.5677    1.7188 H   0  0  0  0  0  0  0  0  0  0  0  0
   -0.0032    2.6899    0.8072 H   0  0  0  0  0  0  0  0  0  0  0  0
    0.4449    3.1907    2.2961 H   0  0  0  0  0  0  0  0  0  0  0  0
  1  5  1  0
  5  8  1  0
  1  2  1  0
  1  3  1  0
  1  4  1  0
  5  6  1  0
  5  7  1  0
  8  9  1  0
  8 10  1  0
  8 11  1  0
 12 16  1  0
 16 17  1  0
 12 13  1  0
 12 14  1  0
 12 15  1  0
 17 18  1  0
 17 19  1  0
 17 20  1  0
M  CHG  1   8   1
M  END
>  <PDB_ID>  (505) 
pdb2qya

>  <RESIDUE_NAME>  (505) 
LYS   MET

>  <FRAG_NAME>  (505) 
ETAM   MSM

>  <FRAG_ATOM_NUM>  (505) 
fragi: 11  fragj: 9

>  <atom.prop.CHAIN_ID>  (505) 
A A A A A A A A A A A Z Z Z Z Z Z Z Z Z

>  <atom.prop.IS_HEAVY_ATOM>  (505) 
1 0 0 0 1 0 0 1 0 0 0 1 0 0 0 1 1 0 0 0

>  <DIFUSE_FUNC_ATOM>  (505) 
n/a

>  <FINAL_SINGLE_POINT_ENERGY>  (505) 
0

>  <NONCOV_INTER_ENERGY_QM>  (505) 
0

>  <FF_Energy>  (505) 
26.25

>  <QM_Energy>  (505) 
4.63

>  <source>  (505) 
ETAM_MSM

>  <Index>  (505) 
2907

$$$$
ETAM-pdb1nb5-A-LYS-10:MSM-pdb1nb5-A-MET-5
     RDKit          3D

 20 18  0  0  0  0  0  0  0  0999 V2000
    1.2413    0.8757   -0.0000 C   0  0  0  0  0  0  0  0  0  0  0  0
    1.0692    1.6680    0.5719 H   0  0  0  0  0  0  0  0  0  0  0  0
    1.4342    1.1495   -0.9333 H   0  0  0  0  0  0  0  0  0  0  0  0
    2.0967    0.3289    0.3967 H   0  0  0  0  0  0  0  0  0  0  0  0
    0.0000    0.0000    0.0000 C   0  0  0  0  0  0  0  0  0  0  0  0
    0.0089   -0.5790   -0.8160 H   0  0  0  0  0  0  0  0  0  0  0  0
    0.0090   -0.5795    0.8160 H   0  0  0  0  0  0  0  0  0  0  0  0
   -1.2413    0.8251    0.0000 N   0  0  0  0  0  4  0  0  0  0  0  0
   -1.1960    1.4905    0.7447 H   0  0  0  0  0  0  0  0  0  0  0  0
   -1.3193    1.3041   -0.8737 H   0  0  0  0  0  0  0  0  0  0  0  0
   -2.0337    0.2295    0.1286 H   0  0  0  0  0  0  0  0  0  0  0  0
   -1.7133   -0.4355    4.9042 C   0  0  0  0  0  0  0  0  0  0  0  0
   -2.6478   -0.0364    4.7355 H   0  0  0  0  0  0  0  0  0  0  0  0
   -1.2308    0.2623    5.4899 H   0  0  0  0  0  0  0  0  0  0  0  0
   -1.8325   -1.3483    5.4879 H   0  0  0  0  0  0  0  0  0  0  0  0
   -0.8347   -0.6803    3.3501 S   0  0  0  0  0  0  0  0  0  0  0  0
   -0.7297    0.9846    2.7755 C   0  0  0  0  0  0  0  0  0  0  0  0
   -1.3083    1.1105    1.9623 H   0  0  0  0  0  0  0  0  0  0  0  0
   -1.0378    1.6210    3.4901 H   0  0  0  0  0  0  0  0  0  0  0  0
    0.2190    1.2107    2.5320 H   0  0  0  0  0  0  0  0  0  0  0  0
  1  5  1  0
  5  8  1  0
  1  2  1  0
  1  3  1  0
  1  4  1  0
  5  6  1  0
  5  7  1  0
  8  9  1  0
  8 10  1  0
  8 11  1  0
 12 16  1  0
 16 17  1  0
 12 13  1  0
 12 14  1  0
 12 15  1  0
 17 18  1  0
 17 19  1  0
 17 20  1  0
M  CHG  1   8   1
M  END
>  <PDB_ID>  (506) 
pdb1nb5

>  <RESIDUE_NAME>  (506) 
LYS   MET

>  <FRAG_NAME>  (506) 
ETAM   MSM

>  <FRAG_ATOM_NUM>  (506) 
fragi: 11  fragj: 9

>  <atom.prop.CHAIN_ID>  (506) 
A A A A A A A A A A A Z Z Z Z Z Z Z Z Z

>  <atom.prop.IS_HEAVY_ATOM>  (506) 
1 0 0 0 1 0 0 1 0 0 0 1 0 0 0 1 1 0 0 0

>  <DIFUSE_FUNC_ATOM>  (506) 
n/a

>  <FINAL_SINGLE_POINT_ENERGY>  (506) 
0

>  <NONCOV_INTER_ENERGY_QM>  (506) 
0

>  <FF_Energy>  (506) 
26.04

>  <QM_Energy>  (506) 
7.28

>  <source>  (506) 
ETAM_MSM

>  <Index>  (506) 
2908

$$$$
ETAM-pdb1nf3-A-LYS-166:MSM-pdb1nf3-C-MET-135
     RDKit          3D

 20 18  0  0  0  0  0  0  0  0999 V2000
    1.2723    0.8727    0.0000 C   0  0  0  0  0  0  0  0  0  0  0  0
    2.0606    0.2699    0.0665 H   0  0  0  0  0  0  0  0  0  0  0  0
    1.2317    1.4775    0.7887 H   0  0  0  0  0  0  0  0  0  0  0  0
    1.3597    1.4729   -0.9057 H   0  0  0  0  0  0  0  0  0  0  0  0
    0.0000    0.0000    0.0000 C   0  0  0  0  0  0  0  0  0  0  0  0
    0.0148   -0.5862   -0.8160 H   0  0  0  0  0  0  0  0  0  0  0  0
    0.0152   -0.5862    0.8162 H   0  0  0  0  0  0  0  0  0  0  0  0
   -1.2723    0.8061    0.0000 N   0  0  0  0  0  4  0  0  0  0  0  0
   -1.9505    0.3377    0.5606 H   0  0  0  0  0  0  0  0  0  0  0  0
   -1.0818    1.7091    0.3765 H   0  0  0  0  0  0  0  0  0  0  0  0
   -1.6019    0.8894   -0.9373 H   0  0  0  0  0  0  0  0  0  0  0  0
    2.6566   -3.3993    0.6986 C   0  0  0  0  0  0  0  0  0  0  0  0
    1.7754   -3.3791    1.2077 H   0  0  0  0  0  0  0  0  0  0  0  0
    3.3200   -3.9034    1.2840 H   0  0  0  0  0  0  0  0  0  0  0  0
    2.5144   -3.9520   -0.2301 H   0  0  0  0  0  0  0  0  0  0  0  0
    3.2357   -1.7427    0.3561 S   0  0  0  0  0  0  0  0  0  0  0  0
    4.5461   -2.0381   -0.9088 C   0  0  0  0  0  0  0  0  0  0  0  0
    4.7081   -1.1853   -1.3906 H   0  0  0  0  0  0  0  0  0  0  0  0
    5.3666   -2.3386   -0.4385 H   0  0  0  0  0  0  0  0  0  0  0  0
    4.2213   -2.7381   -1.5321 H   0  0  0  0  0  0  0  0  0  0  0  0
  1  5  1  0
  5  8  1  0
  1  2  1  0
  1  3  1  0
  1  4  1  0
  5  6  1  0
  5  7  1  0
  8  9  1  0
  8 10  1  0
  8 11  1  0
 12 16  1  0
 16 17  1  0
 12 13  1  0
 12 14  1  0
 12 15  1  0
 17 18  1  0
 17 19  1  0
 17 20  1  0
M  CHG  1   8   1
M  END
>  <PDB_ID>  (507) 
pdb1nf3

>  <RESIDUE_NAME>  (507) 
LYS   MET

>  <FRAG_NAME>  (507) 
ETAM   MSM

>  <FRAG_ATOM_NUM>  (507) 
fragi: 11  fragj: 9

>  <atom.prop.CHAIN_ID>  (507) 
A A A A A A A A A A A Z Z Z Z Z Z Z Z Z

>  <atom.prop.IS_HEAVY_ATOM>  (507) 
1 0 0 0 1 0 0 1 0 0 0 1 0 0 0 1 1 0 0 0

>  <DIFUSE_FUNC_ATOM>  (507) 
n/a

>  <FINAL_SINGLE_POINT_ENERGY>  (507) 
0

>  <NONCOV_INTER_ENERGY_QM>  (507) 
0

>  <FF_Energy>  (507) 
2.8

>  <QM_Energy>  (507) 
-4.88

>  <source>  (507) 
ETAM_MSM

>  <Index>  (507) 
2925

$$$$
ETAM-pdb1nf5-B-LYS-164:MSM-pdb1nf5-B-MET-174
     RDKit          3D

 20 18  0  0  0  0  0  0  0  0999 V2000
    1.2434    0.8851    0.0000 C   0  0  0  0  0  0  0  0  0  0  0  0
    1.1678    1.5345   -0.7518 H   0  0  0  0  0  0  0  0  0  0  0  0
    2.0426    0.3048   -0.1287 H   0  0  0  0  0  0  0  0  0  0  0  0
    1.3533    1.4370    0.9335 H   0  0  0  0  0  0  0  0  0  0  0  0
    0.0000    0.0000    0.0000 C   0  0  0  0  0  0  0  0  0  0  0  0
    0.0166   -0.5792   -0.8159 H   0  0  0  0  0  0  0  0  0  0  0  0
    0.0157   -0.5787    0.8163 H   0  0  0  0  0  0  0  0  0  0  0  0
   -1.2434    0.8165   -0.0000 N   0  0  0  0  0  4  0  0  0  0  0  0
   -1.2785    1.3670   -0.8338 H   0  0  0  0  0  0  0  0  0  0  0  0
   -2.0384    0.2110    0.0353 H   0  0  0  0  0  0  0  0  0  0  0  0
   -1.2453    1.4180    0.7987 H   0  0  0  0  0  0  0  0  0  0  0  0
    2.2236   -1.6067   -3.1978 C   0  0  0  0  0  0  0  0  0  0  0  0
    1.3164   -1.8676   -2.7954 H   0  0  0  0  0  0  0  0  0  0  0  0
    2.9258   -1.9307   -2.5233 H   0  0  0  0  0  0  0  0  0  0  0  0
    2.3616   -2.1396   -4.1385 H   0  0  0  0  0  0  0  0  0  0  0  0
    2.3256    0.2066   -3.3839 S   0  0  0  0  0  0  0  0  0  0  0  0
    0.5497    0.6922   -3.1821 C   0  0  0  0  0  0  0  0  0  0  0  0
   -0.0033    0.0438   -3.6893 H   0  0  0  0  0  0  0  0  0  0  0  0
    0.3335    0.6635   -2.2148 H   0  0  0  0  0  0  0  0  0  0  0  0
    0.4408    1.6091   -3.5429 H   0  0  0  0  0  0  0  0  0  0  0  0
  1  5  1  0
  5  8  1  0
  1  2  1  0
  1  3  1  0
  1  4  1  0
  5  6  1  0
  5  7  1  0
  8  9  1  0
  8 10  1  0
  8 11  1  0
 12 16  1  0
 16 17  1  0
 12 13  1  0
 12 14  1  0
 12 15  1  0
 17 18  1  0
 17 19  1  0
 17 20  1  0
M  CHG  1   8   1
M  END
>  <PDB_ID>  (508) 
pdb1nf5

>  <RESIDUE_NAME>  (508) 
LYS   MET

>  <FRAG_NAME>  (508) 
ETAM   MSM

>  <FRAG_ATOM_NUM>  (508) 
fragi: 11  fragj: 9

>  <atom.prop.CHAIN_ID>  (508) 
A A A A A A A A A A A Z Z Z Z Z Z Z Z Z

>  <atom.prop.IS_HEAVY_ATOM>  (508) 
1 0 0 0 1 0 0 1 0 0 0 1 0 0 0 1 1 0 0 0

>  <DIFUSE_FUNC_ATOM>  (508) 
n/a

>  <FINAL_SINGLE_POINT_ENERGY>  (508) 
0

>  <NONCOV_INTER_ENERGY_QM>  (508) 
0

>  <FF_Energy>  (508) 
8.21

>  <QM_Energy>  (508) 
0.84

>  <source>  (508) 
ETAM_MSM

>  <Index>  (508) 
2928

$$$$
ETAM-pdb1ng5-A-LYS-23:MSM-pdb1ng5-A-MET-19
     RDKit          3D

 20 18  0  0  0  0  0  0  0  0999 V2000
    1.2435    0.8735    0.0000 C   0  0  0  0  0  0  0  0  0  0  0  0
    1.2789    1.3762    0.8573 H   0  0  0  0  0  0  0  0  0  0  0  0
    1.1900    1.5010   -0.7689 H   0  0  0  0  0  0  0  0  0  0  0  0
    2.1481    0.2729   -0.0947 H   0  0  0  0  0  0  0  0  0  0  0  0
    0.0000    0.0000    0.0000 C   0  0  0  0  0  0  0  0  0  0  0  0
    0.0091   -0.5806   -0.8158 H   0  0  0  0  0  0  0  0  0  0  0  0
    0.0081   -0.5805    0.8162 H   0  0  0  0  0  0  0  0  0  0  0  0
   -1.2435    0.8236   -0.0000 N   0  0  0  0  0  4  0  0  0  0  0  0
   -1.8803    0.4593    0.6777 H   0  0  0  0  0  0  0  0  0  0  0  0
   -1.0139    1.7684    0.2286 H   0  0  0  0  0  0  0  0  0  0  0  0
   -1.6616    0.7895   -0.9071 H   0  0  0  0  0  0  0  0  0  0  0  0
    3.2987    2.7861    4.8978 C   0  0  0  0  0  0  0  0  0  0  0  0
    3.8175    1.9330    4.6669 H   0  0  0  0  0  0  0  0  0  0  0  0
    2.8239    2.5885    5.7844 H   0  0  0  0  0  0  0  0  0  0  0  0
    4.0182    3.5874    5.0665 H   0  0  0  0  0  0  0  0  0  0  0  0
    2.1242    3.1945    3.6145 S   0  0  0  0  0  0  0  0  0  0  0  0
    2.6093    2.1979    2.5213 C   0  0  0  0  0  0  0  0  0  0  0  0
    2.3641    2.4514    1.5364 H   0  0  0  0  0  0  0  0  0  0  0  0
    3.6439    2.0516    2.4694 H   0  0  0  0  0  0  0  0  0  0  0  0
    2.2435    1.2217    2.6046 H   0  0  0  0  0  0  0  0  0  0  0  0
  1  5  1  0
  5  8  1  0
  1  2  1  0
  1  3  1  0
  1  4  1  0
  5  6  1  0
  5  7  1  0
  8  9  1  0
  8 10  1  0
  8 11  1  0
 12 16  1  0
 16 17  1  0
 12 13  1  0
 12 14  1  0
 12 15  1  0
 17 18  1  0
 17 19  1  0
 17 20  1  0
M  CHG  1   8   1
M  END
>  <PDB_ID>  (509) 
pdb1ng5

>  <RESIDUE_NAME>  (509) 
LYS   MET

>  <FRAG_NAME>  (509) 
ETAM   MSM

>  <FRAG_ATOM_NUM>  (509) 
fragi: 11  fragj: 9

>  <atom.prop.CHAIN_ID>  (509) 
A A A A A A A A A A A Z Z Z Z Z Z Z Z Z

>  <atom.prop.IS_HEAVY_ATOM>  (509) 
1 0 0 0 1 0 0 1 0 0 0 1 0 0 0 1 1 0 0 0

>  <DIFUSE_FUNC_ATOM>  (509) 
n/a

>  <FINAL_SINGLE_POINT_ENERGY>  (509) 
0

>  <NONCOV_INTER_ENERGY_QM>  (509) 
0

>  <FF_Energy>  (509) 
11.71

>  <QM_Energy>  (509) 
2.89

>  <source>  (509) 
ETAM_MSM

>  <Index>  (509) 
2931

$$$$
ETAM-pdb1ng5-B-LYS-23:MSM-pdb1ng5-B-MET-19
     RDKit          3D

 20 18  0  0  0  0  0  0  0  0999 V2000
    1.2557    0.8709   -0.0000 C   0  0  0  0  0  0  0  0  0  0  0  0
    1.3444    1.3019    0.8890 H   0  0  0  0  0  0  0  0  0  0  0  0
    1.1708    1.5518   -0.7155 H   0  0  0  0  0  0  0  0  0  0  0  0
    2.1509    0.2783   -0.1886 H   0  0  0  0  0  0  0  0  0  0  0  0
    0.0000    0.0000    0.0000 C   0  0  0  0  0  0  0  0  0  0  0  0
    0.0199   -0.5909   -0.8160 H   0  0  0  0  0  0  0  0  0  0  0  0
    0.0191   -0.5911    0.8164 H   0  0  0  0  0  0  0  0  0  0  0  0
   -1.2557    0.7928   -0.0000 N   0  0  0  0  0  4  0  0  0  0  0  0
   -2.0330    0.1854    0.1658 H   0  0  0  0  0  0  0  0  0  0  0  0
   -1.2135    1.4841    0.7208 H   0  0  0  0  0  0  0  0  0  0  0  0
   -1.3656    1.2419   -0.8872 H   0  0  0  0  0  0  0  0  0  0  0  0
    3.0036    1.6401    5.6123 C   0  0  0  0  0  0  0  0  0  0  0  0
    2.4607    0.7600    5.5955 H   0  0  0  0  0  0  0  0  0  0  0  0
    2.4450    2.2739    6.2078 H   0  0  0  0  0  0  0  0  0  0  0  0
    3.9473    1.4438    6.1211 H   0  0  0  0  0  0  0  0  0  0  0  0
    3.1757    2.3157    3.9475 S   0  0  0  0  0  0  0  0  0  0  0  0
    2.1002    1.3877    3.0989 C   0  0  0  0  0  0  0  0  0  0  0  0
    1.2475    1.1714    3.6279 H   0  0  0  0  0  0  0  0  0  0  0  0
    1.7794    1.8322    2.2312 H   0  0  0  0  0  0  0  0  0  0  0  0
    2.4847    0.4795    2.8157 H   0  0  0  0  0  0  0  0  0  0  0  0
  1  5  1  0
  5  8  1  0
  1  2  1  0
  1  3  1  0
  1  4  1  0
  5  6  1  0
  5  7  1  0
  8  9  1  0
  8 10  1  0
  8 11  1  0
 12 16  1  0
 16 17  1  0
 12 13  1  0
 12 14  1  0
 12 15  1  0
 17 18  1  0
 17 19  1  0
 17 20  1  0
M  CHG  1   8   1
M  END
>  <PDB_ID>  (510) 
pdb1ng5

>  <RESIDUE_NAME>  (510) 
LYS   MET

>  <FRAG_NAME>  (510) 
ETAM   MSM

>  <FRAG_ATOM_NUM>  (510) 
fragi: 11  fragj: 9

>  <atom.prop.CHAIN_ID>  (510) 
A A A A A A A A A A A Z Z Z Z Z Z Z Z Z

>  <atom.prop.IS_HEAVY_ATOM>  (510) 
1 0 0 0 1 0 0 1 0 0 0 1 0 0 0 1 1 0 0 0

>  <DIFUSE_FUNC_ATOM>  (510) 
n/a

>  <FINAL_SINGLE_POINT_ENERGY>  (510) 
0

>  <NONCOV_INTER_ENERGY_QM>  (510) 
0

>  <FF_Energy>  (510) 
27.52

>  <QM_Energy>  (510) 
5.22

>  <source>  (510) 
ETAM_MSM

>  <Index>  (510) 
2932

$$$$
ETAM-pdb2r3a-A-LYS-37:MSM-pdb2r3a-A-MET-42
     RDKit          3D

 20 18  0  0  0  0  0  0  0  0999 V2000
    1.2301    0.8954   -0.0000 C   0  0  0  0  0  0  0  0  0  0  0  0
    1.0483    1.6563   -0.6227 H   0  0  0  0  0  0  0  0  0  0  0  0
    1.9957    0.3543   -0.3476 H   0  0  0  0  0  0  0  0  0  0  0  0
    1.4427    1.2633    1.0038 H   0  0  0  0  0  0  0  0  0  0  0  0
    0.0000    0.0000    0.0000 C   0  0  0  0  0  0  0  0  0  0  0  0
    0.0272   -0.5800   -0.8159 H   0  0  0  0  0  0  0  0  0  0  0  0
    0.0268   -0.5802    0.8162 H   0  0  0  0  0  0  0  0  0  0  0  0
   -1.2301    0.8012   -0.0000 N   0  0  0  0  0  4  0  0  0  0  0  0
   -1.0273    1.7394    0.2922 H   0  0  0  0  0  0  0  0  0  0  0  0
   -1.6228    0.8243   -0.9226 H   0  0  0  0  0  0  0  0  0  0  0  0
   -1.8996    0.3999    0.6303 H   0  0  0  0  0  0  0  0  0  0  0  0
   -2.9448   -0.6041   -4.3416 C   0  0  0  0  0  0  0  0  0  0  0  0
   -3.6481    0.1505   -4.4088 H   0  0  0  0  0  0  0  0  0  0  0  0
   -3.3190   -1.3578   -4.9417 H   0  0  0  0  0  0  0  0  0  0  0  0
   -2.0199   -0.2426   -4.7911 H   0  0  0  0  0  0  0  0  0  0  0  0
   -2.7778   -1.1706   -2.6356 S   0  0  0  0  0  0  0  0  0  0  0  0
   -1.7038   -2.5829   -2.8704 C   0  0  0  0  0  0  0  0  0  0  0  0
   -1.8159   -2.9405   -3.7991 H   0  0  0  0  0  0  0  0  0  0  0  0
   -0.7506   -2.3076   -2.7345 H   0  0  0  0  0  0  0  0  0  0  0  0
   -1.9388   -3.2977   -2.2096 H   0  0  0  0  0  0  0  0  0  0  0  0
  1  5  1  0
  5  8  1  0
  1  2  1  0
  1  3  1  0
  1  4  1  0
  5  6  1  0
  5  7  1  0
  8  9  1  0
  8 10  1  0
  8 11  1  0
 12 16  1  0
 16 17  1  0
 12 13  1  0
 12 14  1  0
 12 15  1  0
 17 18  1  0
 17 19  1  0
 17 20  1  0
M  CHG  1   8   1
M  END
>  <PDB_ID>  (511) 
pdb2r3a

>  <RESIDUE_NAME>  (511) 
LYS   MET

>  <FRAG_NAME>  (511) 
ETAM   MSM

>  <FRAG_ATOM_NUM>  (511) 
fragi: 11  fragj: 9

>  <atom.prop.CHAIN_ID>  (511) 
A A A A A A A A A A A Z Z Z Z Z Z Z Z Z

>  <atom.prop.IS_HEAVY_ATOM>  (511) 
1 0 0 0 1 0 0 1 0 0 0 1 0 0 0 1 1 0 0 0

>  <DIFUSE_FUNC_ATOM>  (511) 
n/a

>  <FINAL_SINGLE_POINT_ENERGY>  (511) 
0

>  <NONCOV_INTER_ENERGY_QM>  (511) 
0

>  <FF_Energy>  (511) 
-5.24

>  <QM_Energy>  (511) 
-13.33

>  <source>  (511) 
ETAM_MSM

>  <Index>  (511) 
2948

$$$$
ETAM-pdb1nm8-A-LYS-145:MSM-pdb1nm8-A-MET-438
     RDKit          3D

 20 18  0  0  0  0  0  0  0  0999 V2000
    1.2458    0.8743   -0.0000 C   0  0  0  0  0  0  0  0  0  0  0  0
    1.2863    1.3648    0.8616 H   0  0  0  0  0  0  0  0  0  0  0  0
    1.1870    1.5046   -0.7629 H   0  0  0  0  0  0  0  0  0  0  0  0
    2.1426    0.2639   -0.1066 H   0  0  0  0  0  0  0  0  0  0  0  0
    0.0000    0.0000    0.0000 C   0  0  0  0  0  0  0  0  0  0  0  0
    0.0131   -0.5830   -0.8162 H   0  0  0  0  0  0  0  0  0  0  0  0
    0.0128   -0.5835    0.8169 H   0  0  0  0  0  0  0  0  0  0  0  0
   -1.2458    0.8132    0.0000 N   0  0  0  0  0  4  0  0  0  0  0  0
   -1.7182    0.6959    0.8732 H   0  0  0  0  0  0  0  0  0  0  0  0
   -1.0133    1.7773   -0.1284 H   0  0  0  0  0  0  0  0  0  0  0  0
   -1.8402    0.5101   -0.7450 H   0  0  0  0  0  0  0  0  0  0  0  0
    3.3415    5.0728    1.9886 C   0  0  0  0  0  0  0  0  0  0  0  0
    4.0728    4.4729    1.5995 H   0  0  0  0  0  0  0  0  0  0  0  0
    3.7986    5.6452    2.7023 H   0  0  0  0  0  0  0  0  0  0  0  0
    2.9668    5.7257    1.2003 H   0  0  0  0  0  0  0  0  0  0  0  0
    2.0264    4.0724    2.7260 S   0  0  0  0  0  0  0  0  0  0  0  0
    2.7188    2.4387    2.5752 C   0  0  0  0  0  0  0  0  0  0  0  0
    2.6121    2.1083    1.6344 H   0  0  0  0  0  0  0  0  0  0  0  0
    3.6948    2.4589    2.8064 H   0  0  0  0  0  0  0  0  0  0  0  0
    2.2481    1.8098    3.1985 H   0  0  0  0  0  0  0  0  0  0  0  0
  1  5  1  0
  5  8  1  0
  1  2  1  0
  1  3  1  0
  1  4  1  0
  5  6  1  0
  5  7  1  0
  8  9  1  0
  8 10  1  0
  8 11  1  0
 12 16  1  0
 16 17  1  0
 12 13  1  0
 12 14  1  0
 12 15  1  0
 17 18  1  0
 17 19  1  0
 17 20  1  0
M  CHG  1   8   1
M  END
>  <PDB_ID>  (512) 
pdb1nm8

>  <RESIDUE_NAME>  (512) 
LYS   MET

>  <FRAG_NAME>  (512) 
ETAM   MSM

>  <FRAG_ATOM_NUM>  (512) 
fragi: 11  fragj: 9

>  <atom.prop.CHAIN_ID>  (512) 
A A A A A A A A A A A Z Z Z Z Z Z Z Z Z

>  <atom.prop.IS_HEAVY_ATOM>  (512) 
1 0 0 0 1 0 0 1 0 0 0 1 0 0 0 1 1 0 0 0

>  <DIFUSE_FUNC_ATOM>  (512) 
n/a

>  <FINAL_SINGLE_POINT_ENERGY>  (512) 
0

>  <NONCOV_INTER_ENERGY_QM>  (512) 
0

>  <FF_Energy>  (512) 
5.91

>  <QM_Energy>  (512) 
-0.22

>  <source>  (512) 
ETAM_MSM

>  <Index>  (512) 
2961

$$$$
ETAM-pdb1nlw-B-LYS-256:MSM-pdb1nlw-B-MET-253
     RDKit          3D

 20 18  0  0  0  0  0  0  0  0999 V2000
    1.2313    0.8592   -0.0000 C   0  0  0  0  0  0  0  0  0  0  0  0
    1.1101    1.6068    0.6462 H   0  0  0  0  0  0  0  0  0  0  0  0
    1.3821    1.2159   -0.9165 H   0  0  0  0  0  0  0  0  0  0  0  0
    2.1115    0.2886    0.2961 H   0  0  0  0  0  0  0  0  0  0  0  0
    0.0000    0.0000    0.0000 C   0  0  0  0  0  0  0  0  0  0  0  0
   -0.0013   -0.5807   -0.8160 H   0  0  0  0  0  0  0  0  0  0  0  0
   -0.0027   -0.5809    0.8162 H   0  0  0  0  0  0  0  0  0  0  0  0
   -1.2313    0.8368   -0.0000 N   0  0  0  0  0  4  0  0  0  0  0  0
   -1.1538    1.5405    0.7057 H   0  0  0  0  0  0  0  0  0  0  0  0
   -1.3376    1.2700   -0.8948 H   0  0  0  0  0  0  0  0  0  0  0  0
   -2.0245    0.2590    0.1880 H   0  0  0  0  0  0  0  0  0  0  0  0
   -1.3320    3.4146    4.5507 C   0  0  0  0  0  0  0  0  0  0  0  0
   -2.0196    2.8012    4.9915 H   0  0  0  0  0  0  0  0  0  0  0  0
   -1.6693    4.3683    4.6955 H   0  0  0  0  0  0  0  0  0  0  0  0
   -0.3801    3.2992    5.0689 H   0  0  0  0  0  0  0  0  0  0  0  0
   -1.1890    3.0494    2.7856 S   0  0  0  0  0  0  0  0  0  0  0  0
    0.0508    4.1918    2.3328 C   0  0  0  0  0  0  0  0  0  0  0  0
   -0.2329    5.1344    2.5531 H   0  0  0  0  0  0  0  0  0  0  0  0
    0.9117    4.0006    2.8239 H   0  0  0  0  0  0  0  0  0  0  0  0
    0.2376    4.1444    1.3427 H   0  0  0  0  0  0  0  0  0  0  0  0
  1  5  1  0
  5  8  1  0
  1  2  1  0
  1  3  1  0
  1  4  1  0
  5  6  1  0
  5  7  1  0
  8  9  1  0
  8 10  1  0
  8 11  1  0
 12 16  1  0
 16 17  1  0
 12 13  1  0
 12 14  1  0
 12 15  1  0
 17 18  1  0
 17 19  1  0
 17 20  1  0
M  CHG  1   8   1
M  END
>  <PDB_ID>  (513) 
pdb1nlw

>  <RESIDUE_NAME>  (513) 
LYS   MET

>  <FRAG_NAME>  (513) 
ETAM   MSM

>  <FRAG_ATOM_NUM>  (513) 
fragi: 11  fragj: 9

>  <atom.prop.CHAIN_ID>  (513) 
A A A A A A A A A A A Z Z Z Z Z Z Z Z Z

>  <atom.prop.IS_HEAVY_ATOM>  (513) 
1 0 0 0 1 0 0 1 0 0 0 1 0 0 0 1 1 0 0 0

>  <DIFUSE_FUNC_ATOM>  (513) 
n/a

>  <FINAL_SINGLE_POINT_ENERGY>  (513) 
0

>  <NONCOV_INTER_ENERGY_QM>  (513) 
0

>  <FF_Energy>  (513) 
-5.82

>  <QM_Energy>  (513) 
-12.69

>  <source>  (513) 
ETAM_MSM

>  <Index>  (513) 
2967

$$$$
ETAM-pdb2r8q-A-LYS-832:MSM-pdb2r8q-A-MET-797
     RDKit          3D

 20 18  0  0  0  0  0  0  0  0999 V2000
    1.2576    0.8641    0.0000 C   0  0  0  0  0  0  0  0  0  0  0  0
    1.2699    1.4046   -0.8367 H   0  0  0  0  0  0  0  0  0  0  0  0
    2.0529    0.2644    0.0320 H   0  0  0  0  0  0  0  0  0  0  0  0
    1.2908    1.5393    0.8551 H   0  0  0  0  0  0  0  0  0  0  0  0
    0.0000    0.0000    0.0000 C   0  0  0  0  0  0  0  0  0  0  0  0
    0.0145   -0.5911   -0.8159 H   0  0  0  0  0  0  0  0  0  0  0  0
    0.0139   -0.5911    0.8162 H   0  0  0  0  0  0  0  0  0  0  0  0
   -1.2576    0.8006    0.0000 N   0  0  0  0  0  4  0  0  0  0  0  0
   -2.0109    0.2330   -0.3294 H   0  0  0  0  0  0  0  0  0  0  0  0
   -1.4525    1.1103    0.9295 H   0  0  0  0  0  0  0  0  0  0  0  0
   -1.1457    1.5912   -0.6007 H   0  0  0  0  0  0  0  0  0  0  0  0
   -5.5979    3.6130    0.0534 C   0  0  0  0  0  0  0  0  0  0  0  0
   -5.1238    4.4767    0.3455 H   0  0  0  0  0  0  0  0  0  0  0  0
   -6.4807    3.5993    0.5804 H   0  0  0  0  0  0  0  0  0  0  0  0
   -5.8300    3.6890   -1.0088 H   0  0  0  0  0  0  0  0  0  0  0  0
   -4.5855    2.1604    0.4763 S   0  0  0  0  0  0  0  0  0  0  0  0
   -5.8057    0.8685    0.4689 C   0  0  0  0  0  0  0  0  0  0  0  0
   -5.3555   -0.0278    0.4380 H   0  0  0  0  0  0  0  0  0  0  0  0
   -6.3674    0.9226    1.2984 H   0  0  0  0  0  0  0  0  0  0  0  0
   -6.4000    0.9628   -0.3337 H   0  0  0  0  0  0  0  0  0  0  0  0
  1  5  1  0
  5  8  1  0
  1  2  1  0
  1  3  1  0
  1  4  1  0
  5  6  1  0
  5  7  1  0
  8  9  1  0
  8 10  1  0
  8 11  1  0
 12 16  1  0
 16 17  1  0
 12 13  1  0
 12 14  1  0
 12 15  1  0
 17 18  1  0
 17 19  1  0
 17 20  1  0
M  CHG  1   8   1
M  END
>  <PDB_ID>  (514) 
pdb2r8q

>  <RESIDUE_NAME>  (514) 
LYS   MET

>  <FRAG_NAME>  (514) 
ETAM   MSM

>  <FRAG_ATOM_NUM>  (514) 
fragi: 11  fragj: 9

>  <atom.prop.CHAIN_ID>  (514) 
A A A A A A A A A A A Z Z Z Z Z Z Z Z Z

>  <atom.prop.IS_HEAVY_ATOM>  (514) 
1 0 0 0 1 0 0 1 0 0 0 1 0 0 0 1 1 0 0 0

>  <DIFUSE_FUNC_ATOM>  (514) 
n/a

>  <FINAL_SINGLE_POINT_ENERGY>  (514) 
0

>  <NONCOV_INTER_ENERGY_QM>  (514) 
0

>  <FF_Energy>  (514) 
-4.77

>  <QM_Energy>  (514) 
-10.82

>  <source>  (514) 
ETAM_MSM

>  <Index>  (514) 
2969

$$$$
ETAM-pdb2r8q-B-LYS-832:MSM-pdb2r8q-B-MET-797
     RDKit          3D

 20 18  0  0  0  0  0  0  0  0999 V2000
    1.2579    0.8660    0.0000 C   0  0  0  0  0  0  0  0  0  0  0  0
    1.2752    1.3983   -0.8422 H   0  0  0  0  0  0  0  0  0  0  0  0
    2.0531    0.2681    0.0452 H   0  0  0  0  0  0  0  0  0  0  0  0
    1.2843    1.5509    0.8475 H   0  0  0  0  0  0  0  0  0  0  0  0
    0.0000    0.0000    0.0000 C   0  0  0  0  0  0  0  0  0  0  0  0
    0.0095   -0.5865   -0.8158 H   0  0  0  0  0  0  0  0  0  0  0  0
    0.0094   -0.5866    0.8163 H   0  0  0  0  0  0  0  0  0  0  0  0
   -1.2579    0.8135    0.0000 N   0  0  0  0  0  4  0  0  0  0  0  0
   -1.5870    0.9064   -0.9371 H   0  0  0  0  0  0  0  0  0  0  0  0
   -1.9459    0.3515    0.5564 H   0  0  0  0  0  0  0  0  0  0  0  0
   -1.0641    1.7146    0.3817 H   0  0  0  0  0  0  0  0  0  0  0  0
   -5.6289    3.7739   -0.2143 C   0  0  0  0  0  0  0  0  0  0  0  0
   -5.1591    4.6493    0.0335 H   0  0  0  0  0  0  0  0  0  0  0  0
   -6.5190    3.7837    0.2916 H   0  0  0  0  0  0  0  0  0  0  0  0
   -5.8359    3.7814   -1.2845 H   0  0  0  0  0  0  0  0  0  0  0  0
   -4.6245    2.3479    0.2975 S   0  0  0  0  0  0  0  0  0  0  0  0
   -5.8210    1.0384    0.1827 C   0  0  0  0  0  0  0  0  0  0  0  0
   -6.6756    1.3883   -0.2102 H   0  0  0  0  0  0  0  0  0  0  0  0
   -5.4698    0.3037   -0.4029 H   0  0  0  0  0  0  0  0  0  0  0  0
   -6.0100    0.6665    1.0954 H   0  0  0  0  0  0  0  0  0  0  0  0
  1  5  1  0
  5  8  1  0
  1  2  1  0
  1  3  1  0
  1  4  1  0
  5  6  1  0
  5  7  1  0
  8  9  1  0
  8 10  1  0
  8 11  1  0
 12 16  1  0
 16 17  1  0
 12 13  1  0
 12 14  1  0
 12 15  1  0
 17 18  1  0
 17 19  1  0
 17 20  1  0
M  CHG  1   8   1
M  END
>  <PDB_ID>  (515) 
pdb2r8q

>  <RESIDUE_NAME>  (515) 
LYS   MET

>  <FRAG_NAME>  (515) 
ETAM   MSM

>  <FRAG_ATOM_NUM>  (515) 
fragi: 11  fragj: 9

>  <atom.prop.CHAIN_ID>  (515) 
A A A A A A A A A A A Z Z Z Z Z Z Z Z Z

>  <atom.prop.IS_HEAVY_ATOM>  (515) 
1 0 0 0 1 0 0 1 0 0 0 1 0 0 0 1 1 0 0 0

>  <DIFUSE_FUNC_ATOM>  (515) 
n/a

>  <FINAL_SINGLE_POINT_ENERGY>  (515) 
0

>  <NONCOV_INTER_ENERGY_QM>  (515) 
0

>  <FF_Energy>  (515) 
-4.56

>  <QM_Energy>  (515) 
-9.98

>  <source>  (515) 
ETAM_MSM

>  <Index>  (515) 
2970

$$$$
ETAM-pdb1nou-B-LYS-465:MSM-pdb1nou-B-MET-522
     RDKit          3D

 20 18  0  0  0  0  0  0  0  0999 V2000
    1.2156    0.8916    0.0000 C   0  0  0  0  0  0  0  0  0  0  0  0
    1.1607    1.5134   -0.7761 H   0  0  0  0  0  0  0  0  0  0  0  0
    2.0321    0.3255   -0.0717 H   0  0  0  0  0  0  0  0  0  0  0  0
    1.2786    1.4814    0.9145 H   0  0  0  0  0  0  0  0  0  0  0  0
    0.0000    0.0000    0.0000 C   0  0  0  0  0  0  0  0  0  0  0  0
    0.0188   -0.5763   -0.8163 H   0  0  0  0  0  0  0  0  0  0  0  0
    0.0192   -0.5765    0.8166 H   0  0  0  0  0  0  0  0  0  0  0  0
   -1.2156    0.8171    0.0000 N   0  0  0  0  0  4  0  0  0  0  0  0
   -1.7324    0.6636    0.8463 H   0  0  0  0  0  0  0  0  0  0  0  0
   -0.9758    1.7892   -0.0639 H   0  0  0  0  0  0  0  0  0  0  0  0
   -1.7941    0.5723   -0.7833 H   0  0  0  0  0  0  0  0  0  0  0  0
   -3.8096    2.4486    0.9375 C   0  0  0  0  0  0  0  0  0  0  0  0
   -4.0268    1.6373    1.5441 H   0  0  0  0  0  0  0  0  0  0  0  0
   -3.4612    2.0190    0.0612 H   0  0  0  0  0  0  0  0  0  0  0  0
   -4.7424    2.9668    0.7154 H   0  0  0  0  0  0  0  0  0  0  0  0
   -2.4932    3.4709    1.7037 S   0  0  0  0  0  0  0  0  0  0  0  0
   -2.0654    4.4566    0.3570 C   0  0  0  0  0  0  0  0  0  0  0  0
   -1.7261    5.3635    0.6551 H   0  0  0  0  0  0  0  0  0  0  0  0
   -1.3351    4.0272   -0.1993 H   0  0  0  0  0  0  0  0  0  0  0  0
   -2.8587    4.6141   -0.2534 H   0  0  0  0  0  0  0  0  0  0  0  0
  1  5  1  0
  5  8  1  0
  1  2  1  0
  1  3  1  0
  1  4  1  0
  5  6  1  0
  5  7  1  0
  8  9  1  0
  8 10  1  0
  8 11  1  0
 12 16  1  0
 16 17  1  0
 12 13  1  0
 12 14  1  0
 12 15  1  0
 17 18  1  0
 17 19  1  0
 17 20  1  0
M  CHG  1   8   1
M  END
>  <PDB_ID>  (516) 
pdb1nou

>  <RESIDUE_NAME>  (516) 
LYS   MET

>  <FRAG_NAME>  (516) 
ETAM   MSM

>  <FRAG_ATOM_NUM>  (516) 
fragi: 11  fragj: 9

>  <atom.prop.CHAIN_ID>  (516) 
A A A A A A A A A A A Z Z Z Z Z Z Z Z Z

>  <atom.prop.IS_HEAVY_ATOM>  (516) 
1 0 0 0 1 0 0 1 0 0 0 1 0 0 0 1 1 0 0 0

>  <DIFUSE_FUNC_ATOM>  (516) 
n/a

>  <FINAL_SINGLE_POINT_ENERGY>  (516) 
0

>  <NONCOV_INTER_ENERGY_QM>  (516) 
0

>  <FF_Energy>  (516) 
-1.29

>  <QM_Energy>  (516) 
-7.29

>  <source>  (516) 
ETAM_MSM

>  <Index>  (516) 
2975

$$$$
ETAM-pdb1nou-A-LYS-465:MSM-pdb1nou-A-MET-522
     RDKit          3D

 20 18  0  0  0  0  0  0  0  0999 V2000
    1.2223    0.8739   -0.0000 C   0  0  0  0  0  0  0  0  0  0  0  0
    1.0837    1.6239   -0.6508 H   0  0  0  0  0  0  0  0  0  0  0  0
    2.0102    0.3274   -0.2914 H   0  0  0  0  0  0  0  0  0  0  0  0
    1.4343    1.2975    0.9817 H   0  0  0  0  0  0  0  0  0  0  0  0
    0.0000    0.0000    0.0000 C   0  0  0  0  0  0  0  0  0  0  0  0
    0.0101   -0.5803   -0.8159 H   0  0  0  0  0  0  0  0  0  0  0  0
    0.0100   -0.5809    0.8169 H   0  0  0  0  0  0  0  0  0  0  0  0
   -1.2223    0.8217    0.0000 N   0  0  0  0  0  4  0  0  0  0  0  0
   -1.1279    1.5708   -0.6593 H   0  0  0  0  0  0  0  0  0  0  0  0
   -2.0106    0.2571   -0.2538 H   0  0  0  0  0  0  0  0  0  0  0  0
   -1.3729    1.2049    0.9138 H   0  0  0  0  0  0  0  0  0  0  0  0
   -3.5449    1.4748    2.2691 C   0  0  0  0  0  0  0  0  0  0  0  0
   -3.5204    0.5968    2.8250 H   0  0  0  0  0  0  0  0  0  0  0  0
   -3.3837    1.1500    1.2947 H   0  0  0  0  0  0  0  0  0  0  0  0
   -4.5487    1.8947    2.3324 H   0  0  0  0  0  0  0  0  0  0  0  0
   -2.1458    2.5757    2.7918 S   0  0  0  0  0  0  0  0  0  0  0  0
   -2.3520    3.9430    1.6028 C   0  0  0  0  0  0  0  0  0  0  0  0
   -3.0298    4.5787    1.9607 H   0  0  0  0  0  0  0  0  0  0  0  0
   -1.4767    4.4028    1.4896 H   0  0  0  0  0  0  0  0  0  0  0  0
   -2.6582    3.5673    0.7334 H   0  0  0  0  0  0  0  0  0  0  0  0
  1  5  1  0
  5  8  1  0
  1  2  1  0
  1  3  1  0
  1  4  1  0
  5  6  1  0
  5  7  1  0
  8  9  1  0
  8 10  1  0
  8 11  1  0
 12 16  1  0
 16 17  1  0
 12 13  1  0
 12 14  1  0
 12 15  1  0
 17 18  1  0
 17 19  1  0
 17 20  1  0
M  CHG  1   8   1
M  END
>  <PDB_ID>  (517) 
pdb1nou

>  <RESIDUE_NAME>  (517) 
LYS   MET

>  <FRAG_NAME>  (517) 
ETAM   MSM

>  <FRAG_ATOM_NUM>  (517) 
fragi: 11  fragj: 9

>  <atom.prop.CHAIN_ID>  (517) 
A A A A A A A A A A A Z Z Z Z Z Z Z Z Z

>  <atom.prop.IS_HEAVY_ATOM>  (517) 
1 0 0 0 1 0 0 1 0 0 0 1 0 0 0 1 1 0 0 0

>  <DIFUSE_FUNC_ATOM>  (517) 
n/a

>  <FINAL_SINGLE_POINT_ENERGY>  (517) 
0

>  <NONCOV_INTER_ENERGY_QM>  (517) 
0

>  <FF_Energy>  (517) 
-1.94

>  <QM_Energy>  (517) 
-10.83

>  <source>  (517) 
ETAM_MSM

>  <Index>  (517) 
2985

$$$$
ETAM-pdb2rfj-C-LYS-71:MSM-pdb2rfj-A-MET-127
     RDKit          3D

 20 18  0  0  0  0  0  0  0  0999 V2000
    1.2094    0.8488    0.0000 C   0  0  0  0  0  0  0  0  0  0  0  0
    1.2070    1.4286    0.8197 H   0  0  0  0  0  0  0  0  0  0  0  0
    1.2010    1.4365   -0.8136 H   0  0  0  0  0  0  0  0  0  0  0  0
    2.1244    0.2564   -0.0059 H   0  0  0  0  0  0  0  0  0  0  0  0
    0.0000    0.0000    0.0000 C   0  0  0  0  0  0  0  0  0  0  0  0
   -0.0138   -0.5781   -0.8160 H   0  0  0  0  0  0  0  0  0  0  0  0
   -0.0137   -0.5776    0.8165 H   0  0  0  0  0  0  0  0  0  0  0  0
   -1.2094    0.8560   -0.0000 N   0  0  0  0  0  4  0  0  0  0  0  0
   -1.0032    1.7276   -0.4467 H   0  0  0  0  0  0  0  0  0  0  0  0
   -1.9466    0.3944   -0.4958 H   0  0  0  0  0  0  0  0  0  0  0  0
   -1.4992    1.0266    0.9420 H   0  0  0  0  0  0  0  0  0  0  0  0
   -0.9121    6.2503   -0.6525 C   0  0  0  0  0  0  0  0  0  0  0  0
   -0.1327    6.1383   -1.3129 H   0  0  0  0  0  0  0  0  0  0  0  0
   -0.5368    6.8297    0.1098 H   0  0  0  0  0  0  0  0  0  0  0  0
   -1.7153    6.7966   -1.1470 H   0  0  0  0  0  0  0  0  0  0  0  0
   -1.4268    4.6220   -0.0067 S   0  0  0  0  0  0  0  0  0  0  0  0
   -2.3444    5.0717    1.5006 C   0  0  0  0  0  0  0  0  0  0  0  0
   -2.3067    4.3086    2.1394 H   0  0  0  0  0  0  0  0  0  0  0  0
   -1.9214    5.8780    1.9050 H   0  0  0  0  0  0  0  0  0  0  0  0
   -3.2893    5.2665    1.2542 H   0  0  0  0  0  0  0  0  0  0  0  0
  1  5  1  0
  5  8  1  0
  1  2  1  0
  1  3  1  0
  1  4  1  0
  5  6  1  0
  5  7  1  0
  8  9  1  0
  8 10  1  0
  8 11  1  0
 12 16  1  0
 16 17  1  0
 12 13  1  0
 12 14  1  0
 12 15  1  0
 17 18  1  0
 17 19  1  0
 17 20  1  0
M  CHG  1   8   1
M  END
>  <PDB_ID>  (518) 
pdb2rfj

>  <RESIDUE_NAME>  (518) 
LYS   MET

>  <FRAG_NAME>  (518) 
ETAM   MSM

>  <FRAG_ATOM_NUM>  (518) 
fragi: 11  fragj: 9

>  <atom.prop.CHAIN_ID>  (518) 
A A A A A A A A A A A Z Z Z Z Z Z Z Z Z

>  <atom.prop.IS_HEAVY_ATOM>  (518) 
1 0 0 0 1 0 0 1 0 0 0 1 0 0 0 1 1 0 0 0

>  <DIFUSE_FUNC_ATOM>  (518) 
n/a

>  <FINAL_SINGLE_POINT_ENERGY>  (518) 
0

>  <NONCOV_INTER_ENERGY_QM>  (518) 
0

>  <FF_Energy>  (518) 
-4.87

>  <QM_Energy>  (518) 
-10.84

>  <source>  (518) 
ETAM_MSM

>  <Index>  (518) 
3022

$$$$
ETAM-pdb1ny2-2-LYS-109:MSM-pdb1ny2-2-MET-84
     RDKit          3D

 20 18  0  0  0  0  0  0  0  0999 V2000
    1.2305    0.9005    0.0000 C   0  0  0  0  0  0  0  0  0  0  0  0
    0.9279    1.8414    0.1713 H   0  0  0  0  0  0  0  0  0  0  0  0
    1.6517    0.8523   -0.9091 H   0  0  0  0  0  0  0  0  0  0  0  0
    1.9673    0.6193    0.7525 H   0  0  0  0  0  0  0  0  0  0  0  0
    0.0000    0.0000    0.0000 C   0  0  0  0  0  0  0  0  0  0  0  0
    0.0029   -0.5572   -0.8158 H   0  0  0  0  0  0  0  0  0  0  0  0
    0.0031   -0.5571    0.8163 H   0  0  0  0  0  0  0  0  0  0  0  0
   -1.2305    0.8660    0.0000 N   0  0  0  0  0  4  0  0  0  0  0  0
   -1.0697    1.6566   -0.5855 H   0  0  0  0  0  0  0  0  0  0  0  0
   -1.9998    0.3353   -0.3478 H   0  0  0  0  0  0  0  0  0  0  0  0
   -1.4160    1.1647    0.9334 H   0  0  0  0  0  0  0  0  0  0  0  0
   -1.1052   -3.5044    2.7834 C   0  0  0  0  0  0  0  0  0  0  0  0
   -1.0994   -4.5032    2.5868 H   0  0  0  0  0  0  0  0  0  0  0  0
   -1.1116   -3.4073    3.7967 H   0  0  0  0  0  0  0  0  0  0  0  0
   -0.2083   -3.0412    2.3723 H   0  0  0  0  0  0  0  0  0  0  0  0
   -2.6815   -2.7585    2.0922 S   0  0  0  0  0  0  0  0  0  0  0  0
   -2.0874   -1.0553    2.0398 C   0  0  0  0  0  0  0  0  0  0  0  0
   -1.6326   -0.8917    1.1655 H   0  0  0  0  0  0  0  0  0  0  0  0
   -2.8631   -0.4332    2.1376 H   0  0  0  0  0  0  0  0  0  0  0  0
   -1.4421   -0.9087    2.7880 H   0  0  0  0  0  0  0  0  0  0  0  0
  1  5  1  0
  5  8  1  0
  1  2  1  0
  1  3  1  0
  1  4  1  0
  5  6  1  0
  5  7  1  0
  8  9  1  0
  8 10  1  0
  8 11  1  0
 12 16  1  0
 16 17  1  0
 12 13  1  0
 12 14  1  0
 12 15  1  0
 17 18  1  0
 17 19  1  0
 17 20  1  0
M  CHG  1   8   1
M  END
>  <PDB_ID>  (519) 
pdb1ny2

>  <RESIDUE_NAME>  (519) 
LYS   MET

>  <FRAG_NAME>  (519) 
ETAM   MSM

>  <FRAG_ATOM_NUM>  (519) 
fragi: 11  fragj: 9

>  <atom.prop.CHAIN_ID>  (519) 
A A A A A A A A A A A Z Z Z Z Z Z Z Z Z

>  <atom.prop.IS_HEAVY_ATOM>  (519) 
1 0 0 0 1 0 0 1 0 0 0 1 0 0 0 1 1 0 0 0

>  <DIFUSE_FUNC_ATOM>  (519) 
n/a

>  <FINAL_SINGLE_POINT_ENERGY>  (519) 
0

>  <NONCOV_INTER_ENERGY_QM>  (519) 
0

>  <FF_Energy>  (519) 
22.85

>  <QM_Energy>  (519) 
5.75

>  <source>  (519) 
ETAM_MSM

>  <Index>  (519) 
3023

$$$$
ETAM-pdb1nyt-C-LYS-56:MSM-pdb1nyt-D-MET-1
     RDKit          3D

 20 18  0  0  0  0  0  0  0  0999 V2000
    1.2591    0.8588    0.0000 C   0  0  0  0  0  0  0  0  0  0  0  0
    1.1900    1.5290    0.7292 H   0  0  0  0  0  0  0  0  0  0  0  0
    1.3414    1.3069   -0.8816 H   0  0  0  0  0  0  0  0  0  0  0  0
    2.1534    0.2585    0.1673 H   0  0  0  0  0  0  0  0  0  0  0  0
    0.0000    0.0000    0.0000 C   0  0  0  0  0  0  0  0  0  0  0  0
   -0.0008   -0.5814   -0.8160 H   0  0  0  0  0  0  0  0  0  0  0  0
   -0.0019   -0.5820    0.8162 H   0  0  0  0  0  0  0  0  0  0  0  0
   -1.2591    0.8341    0.0000 N   0  0  0  0  0  4  0  0  0  0  0  0
   -1.9508    0.3707    0.5463 H   0  0  0  0  0  0  0  0  0  0  0  0
   -1.0524    1.7263    0.3921 H   0  0  0  0  0  0  0  0  0  0  0  0
   -1.5755    0.9374   -0.9390 H   0  0  0  0  0  0  0  0  0  0  0  0
   -3.8393   -0.2885   -2.3188 C   0  0  0  0  0  0  0  0  0  0  0  0
   -4.2178   -1.0587   -2.8521 H   0  0  0  0  0  0  0  0  0  0  0  0
   -2.8941   -0.1279   -2.6383 H   0  0  0  0  0  0  0  0  0  0  0  0
   -4.4416    0.6047   -2.4848 H   0  0  0  0  0  0  0  0  0  0  0  0
   -3.8328   -0.7072   -0.5374 S   0  0  0  0  0  0  0  0  0  0  0  0
   -2.7474   -2.2007   -0.6440 C   0  0  0  0  0  0  0  0  0  0  0  0
   -3.3275   -2.9910   -0.7917 H   0  0  0  0  0  0  0  0  0  0  0  0
   -2.1239   -2.0727   -1.4042 H   0  0  0  0  0  0  0  0  0  0  0  0
   -2.2510   -2.2809    0.2108 H   0  0  0  0  0  0  0  0  0  0  0  0
  1  5  1  0
  5  8  1  0
  1  2  1  0
  1  3  1  0
  1  4  1  0
  5  6  1  0
  5  7  1  0
  8  9  1  0
  8 10  1  0
  8 11  1  0
 12 16  1  0
 16 17  1  0
 12 13  1  0
 12 14  1  0
 12 15  1  0
 17 18  1  0
 17 19  1  0
 17 20  1  0
M  CHG  1   8   1
M  END
>  <PDB_ID>  (520) 
pdb1nyt

>  <RESIDUE_NAME>  (520) 
LYS   MET

>  <FRAG_NAME>  (520) 
ETAM   MSM

>  <FRAG_ATOM_NUM>  (520) 
fragi: 11  fragj: 9

>  <atom.prop.CHAIN_ID>  (520) 
A A A A A A A A A A A Z Z Z Z Z Z Z Z Z

>  <atom.prop.IS_HEAVY_ATOM>  (520) 
1 0 0 0 1 0 0 1 0 0 0 1 0 0 0 1 1 0 0 0

>  <DIFUSE_FUNC_ATOM>  (520) 
n/a

>  <FINAL_SINGLE_POINT_ENERGY>  (520) 
0

>  <NONCOV_INTER_ENERGY_QM>  (520) 
0

>  <FF_Energy>  (520) 
-2.54

>  <QM_Energy>  (520) 
-10.53

>  <source>  (520) 
ETAM_MSM

>  <Index>  (520) 
3032

$$$$
ETAM-pdb2rgt-B-LYS-152:MSM-pdb2rgt-B-MET-137
     RDKit          3D

 20 18  0  0  0  0  0  0  0  0999 V2000
    1.2464    0.8700   -0.0000 C   0  0  0  0  0  0  0  0  0  0  0  0
    1.7006    0.7734   -0.8790 H   0  0  0  0  0  0  0  0  0  0  0  0
    1.8436    0.5682    0.7344 H   0  0  0  0  0  0  0  0  0  0  0  0
    0.9959    1.9194    0.1553 H   0  0  0  0  0  0  0  0  0  0  0  0
    0.0000    0.0000    0.0000 C   0  0  0  0  0  0  0  0  0  0  0  0
    0.0116   -0.5848   -0.8160 H   0  0  0  0  0  0  0  0  0  0  0  0
    0.0107   -0.5844    0.8164 H   0  0  0  0  0  0  0  0  0  0  0  0
   -1.2464    0.8146    0.0000 N   0  0  0  0  0  4  0  0  0  0  0  0
   -1.6133    0.8595    0.9290 H   0  0  0  0  0  0  0  0  0  0  0  0
   -1.0389    1.7376   -0.3228 H   0  0  0  0  0  0  0  0  0  0  0  0
   -1.9191    0.3904   -0.6057 H   0  0  0  0  0  0  0  0  0  0  0  0
   -0.9298   -4.0453   -0.4713 C   0  0  0  0  0  0  0  0  0  0  0  0
   -0.7655   -4.2332   -1.4598 H   0  0  0  0  0  0  0  0  0  0  0  0
   -1.4551   -3.1720   -0.4278 H   0  0  0  0  0  0  0  0  0  0  0  0
   -1.5587   -4.8420   -0.0740 H   0  0  0  0  0  0  0  0  0  0  0  0
    0.6132   -3.9197    0.4303 S   0  0  0  0  0  0  0  0  0  0  0  0
    1.4827   -2.6677   -0.4638 C   0  0  0  0  0  0  0  0  0  0  0  0
    1.6289   -2.9583   -1.4153 H   0  0  0  0  0  0  0  0  0  0  0  0
    0.9558   -1.8118   -0.4653 H   0  0  0  0  0  0  0  0  0  0  0  0
    2.3768   -2.4946   -0.0392 H   0  0  0  0  0  0  0  0  0  0  0  0
  1  5  1  0
  5  8  1  0
  1  2  1  0
  1  3  1  0
  1  4  1  0
  5  6  1  0
  5  7  1  0
  8  9  1  0
  8 10  1  0
  8 11  1  0
 12 16  1  0
 16 17  1  0
 12 13  1  0
 12 14  1  0
 12 15  1  0
 17 18  1  0
 17 19  1  0
 17 20  1  0
M  CHG  1   8   1
M  END
>  <PDB_ID>  (521) 
pdb2rgt

>  <RESIDUE_NAME>  (521) 
LYS   MET

>  <FRAG_NAME>  (521) 
ETAM   MSM

>  <FRAG_ATOM_NUM>  (521) 
fragi: 11  fragj: 9

>  <atom.prop.CHAIN_ID>  (521) 
A A A A A A A A A A A Z Z Z Z Z Z Z Z Z

>  <atom.prop.IS_HEAVY_ATOM>  (521) 
1 0 0 0 1 0 0 1 0 0 0 1 0 0 0 1 1 0 0 0

>  <DIFUSE_FUNC_ATOM>  (521) 
n/a

>  <FINAL_SINGLE_POINT_ENERGY>  (521) 
0

>  <NONCOV_INTER_ENERGY_QM>  (521) 
0

>  <FF_Energy>  (521) 
25.34

>  <QM_Energy>  (521) 
4.63

>  <source>  (521) 
ETAM_MSM

>  <Index>  (521) 
3039

$$$$
ETAM-pdb2rgo-A-LYS-196:MSM-pdb2rgo-A-MET-49
     RDKit          3D

 20 18  0  0  0  0  0  0  0  0999 V2000
    1.2370    0.8488   -0.0000 C   0  0  0  0  0  0  0  0  0  0  0  0
    1.0782    1.6559   -0.5829 H   0  0  0  0  0  0  0  0  0  0  0  0
    1.9964    0.3180   -0.3965 H   0  0  0  0  0  0  0  0  0  0  0  0
    1.5383    1.1942    0.9890 H   0  0  0  0  0  0  0  0  0  0  0  0
    0.0000    0.0000    0.0000 C   0  0  0  0  0  0  0  0  0  0  0  0
    0.0040   -0.5926   -0.8163 H   0  0  0  0  0  0  0  0  0  0  0  0
    0.0035   -0.5927    0.8164 H   0  0  0  0  0  0  0  0  0  0  0  0
   -1.2370    0.8109   -0.0000 N   0  0  0  0  0  4  0  0  0  0  0  0
   -1.0031    1.7807   -0.0889 H   0  0  0  0  0  0  0  0  0  0  0  0
   -1.8174    0.5378   -0.7682 H   0  0  0  0  0  0  0  0  0  0  0  0
   -1.7330    0.6672    0.8579 H   0  0  0  0  0  0  0  0  0  0  0  0
    0.3779    5.2038    0.8780 C   0  0  0  0  0  0  0  0  0  0  0  0
    0.1290    5.9920    0.3088 H   0  0  0  0  0  0  0  0  0  0  0  0
    0.9335    4.5715    0.3301 H   0  0  0  0  0  0  0  0  0  0  0  0
    0.9483    5.5406    1.7436 H   0  0  0  0  0  0  0  0  0  0  0  0
   -1.1495    4.3482    1.4615 S   0  0  0  0  0  0  0  0  0  0  0  0
   -2.4957    5.5183    1.1513 C   0  0  0  0  0  0  0  0  0  0  0  0
   -2.1678    6.2397    0.5455 H   0  0  0  0  0  0  0  0  0  0  0  0
   -3.2554    5.0344    0.7219 H   0  0  0  0  0  0  0  0  0  0  0  0
   -2.7921    5.9122    2.0193 H   0  0  0  0  0  0  0  0  0  0  0  0
  1  5  1  0
  5  8  1  0
  1  2  1  0
  1  3  1  0
  1  4  1  0
  5  6  1  0
  5  7  1  0
  8  9  1  0
  8 10  1  0
  8 11  1  0
 12 16  1  0
 16 17  1  0
 12 13  1  0
 12 14  1  0
 12 15  1  0
 17 18  1  0
 17 19  1  0
 17 20  1  0
M  CHG  1   8   1
M  END
>  <PDB_ID>  (522) 
pdb2rgo

>  <RESIDUE_NAME>  (522) 
LYS   MET

>  <FRAG_NAME>  (522) 
ETAM   MSM

>  <FRAG_ATOM_NUM>  (522) 
fragi: 11  fragj: 9

>  <atom.prop.CHAIN_ID>  (522) 
A A A A A A A A A A A Z Z Z Z Z Z Z Z Z

>  <atom.prop.IS_HEAVY_ATOM>  (522) 
1 0 0 0 1 0 0 1 0 0 0 1 0 0 0 1 1 0 0 0

>  <DIFUSE_FUNC_ATOM>  (522) 
n/a

>  <FINAL_SINGLE_POINT_ENERGY>  (522) 
0

>  <NONCOV_INTER_ENERGY_QM>  (522) 
0

>  <FF_Energy>  (522) 
-4.67

>  <QM_Energy>  (522) 
-12.44

>  <source>  (522) 
ETAM_MSM

>  <Index>  (522) 
3050

$$$$
ETAM-pdb2rjg-B-LYS-356:MSM-pdb2rjg-B-MET-1
     RDKit          3D

 20 18  0  0  0  0  0  0  0  0999 V2000
    1.2776    0.8436   -0.0000 C   0  0  0  0  0  0  0  0  0  0  0  0
    1.3380    1.3235    0.8592 H   0  0  0  0  0  0  0  0  0  0  0  0
    1.2442    1.4642   -0.7651 H   0  0  0  0  0  0  0  0  0  0  0  0
    2.1487    0.1970   -0.1052 H   0  0  0  0  0  0  0  0  0  0  0  0
    0.0000    0.0000    0.0000 C   0  0  0  0  0  0  0  0  0  0  0  0
    0.0016   -0.5947   -0.8160 H   0  0  0  0  0  0  0  0  0  0  0  0
    0.0014   -0.5949    0.8160 H   0  0  0  0  0  0  0  0  0  0  0  0
   -1.2776    0.8102    0.0000 N   0  0  0  0  0  4  0  0  0  0  0  0
   -1.1116    1.6684   -0.4776 H   0  0  0  0  0  0  0  0  0  0  0  0
   -1.9865    0.2892   -0.4652 H   0  0  0  0  0  0  0  0  0  0  0  0
   -1.5433    0.9870    0.9427 H   0  0  0  0  0  0  0  0  0  0  0  0
   -0.2917   -3.8244    3.1534 C   0  0  0  0  0  0  0  0  0  0  0  0
    0.5192   -4.4358    3.2872 H   0  0  0  0  0  0  0  0  0  0  0  0
   -0.9110   -4.3220    2.5074 H   0  0  0  0  0  0  0  0  0  0  0  0
   -0.8045   -3.7243    4.1101 H   0  0  0  0  0  0  0  0  0  0  0  0
    0.2074   -2.2348    2.4684 S   0  0  0  0  0  0  0  0  0  0  0  0
    1.2097   -2.7571    0.8788 C   0  0  0  0  0  0  0  0  0  0  0  0
    1.9184   -3.3460    1.2045 H   0  0  0  0  0  0  0  0  0  0  0  0
    0.5616   -3.2114    0.3053 H   0  0  0  0  0  0  0  0  0  0  0  0
    1.5434   -1.9203    0.5005 H   0  0  0  0  0  0  0  0  0  0  0  0
  1  5  1  0
  5  8  1  0
  1  2  1  0
  1  3  1  0
  1  4  1  0
  5  6  1  0
  5  7  1  0
  8  9  1  0
  8 10  1  0
  8 11  1  0
 12 16  1  0
 16 17  1  0
 12 13  1  0
 12 14  1  0
 12 15  1  0
 17 18  1  0
 17 19  1  0
 17 20  1  0
M  CHG  1   8   1
M  END
>  <PDB_ID>  (523) 
pdb2rjg

>  <RESIDUE_NAME>  (523) 
LYS   MET

>  <FRAG_NAME>  (523) 
ETAM   MSM

>  <FRAG_ATOM_NUM>  (523) 
fragi: 11  fragj: 9

>  <atom.prop.CHAIN_ID>  (523) 
A A A A A A A A A A A Z Z Z Z Z Z Z Z Z

>  <atom.prop.IS_HEAVY_ATOM>  (523) 
1 0 0 0 1 0 0 1 0 0 0 1 0 0 0 1 1 0 0 0

>  <DIFUSE_FUNC_ATOM>  (523) 
n/a

>  <FINAL_SINGLE_POINT_ENERGY>  (523) 
0

>  <NONCOV_INTER_ENERGY_QM>  (523) 
0

>  <FF_Energy>  (523) 
7.17

>  <QM_Energy>  (523) 
-4.93

>  <source>  (523) 
ETAM_MSM

>  <Index>  (523) 
3053

$$$$
ETAM-pdb2rus-B-LYS-310:MSM-pdb2rus-B-MET-342
     RDKit          3D

 20 18  0  0  0  0  0  0  0  0999 V2000
    1.2603    0.8331    0.0000 C   0  0  0  0  0  0  0  0  0  0  0  0
    1.3710    1.2481    0.8651 H   0  0  0  0  0  0  0  0  0  0  0  0
    1.2443    1.4391   -0.7523 H   0  0  0  0  0  0  0  0  0  0  0  0
    2.0594    0.1065   -0.1472 H   0  0  0  0  0  0  0  0  0  0  0  0
    0.0000    0.0000    0.0000 C   0  0  0  0  0  0  0  0  0  0  0  0
    0.0182   -0.6152   -0.8158 H   0  0  0  0  0  0  0  0  0  0  0  0
    0.0184   -0.6152    0.8166 H   0  0  0  0  0  0  0  0  0  0  0  0
   -1.2603    0.7589    0.0000 N   0  0  0  0  0  4  0  0  0  0  0  0
   -1.5635    0.9145   -0.9427 H   0  0  0  0  0  0  0  0  0  0  0  0
   -1.9676    0.2451    0.4910 H   0  0  0  0  0  0  0  0  0  0  0  0
   -1.1247    1.6439    0.4520 H   0  0  0  0  0  0  0  0  0  0  0  0
    1.9238    1.0031    3.8518 C   0  0  0  0  0  0  0  0  0  0  0  0
    2.1471    1.7998    3.1956 H   0  0  0  0  0  0  0  0  0  0  0  0
    2.5515    0.2427    3.4760 H   0  0  0  0  0  0  0  0  0  0  0  0
    2.2724    1.2735    4.8486 H   0  0  0  0  0  0  0  0  0  0  0  0
    0.1899    0.5159    3.6534 S   0  0  0  0  0  0  0  0  0  0  0  0
   -0.7848    1.9388    4.1462 C   0  0  0  0  0  0  0  0  0  0  0  0
   -0.7416    2.0459    5.1405 H   0  0  0  0  0  0  0  0  0  0  0  0
   -0.4212    2.7610    3.7074 H   0  0  0  0  0  0  0  0  0  0  0  0
   -1.7368    1.8059    3.8672 H   0  0  0  0  0  0  0  0  0  0  0  0
  1  5  1  0
  5  8  1  0
  1  2  1  0
  1  3  1  0
  1  4  1  0
  5  6  1  0
  5  7  1  0
  8  9  1  0
  8 10  1  0
  8 11  1  0
 12 16  1  0
 16 17  1  0
 12 13  1  0
 12 14  1  0
 12 15  1  0
 17 18  1  0
 17 19  1  0
 17 20  1  0
M  CHG  1   8   1
M  END
>  <PDB_ID>  (524) 
pdb2rus

>  <RESIDUE_NAME>  (524) 
LYS   MET

>  <FRAG_NAME>  (524) 
ETAM   MSM

>  <FRAG_ATOM_NUM>  (524) 
fragi: 11  fragj: 9

>  <atom.prop.CHAIN_ID>  (524) 
A A A A A A A A A A A Z Z Z Z Z Z Z Z Z

>  <atom.prop.IS_HEAVY_ATOM>  (524) 
1 0 0 0 1 0 0 1 0 0 0 1 0 0 0 1 1 0 0 0

>  <DIFUSE_FUNC_ATOM>  (524) 
n/a

>  <FINAL_SINGLE_POINT_ENERGY>  (524) 
0

>  <NONCOV_INTER_ENERGY_QM>  (524) 
0

>  <FF_Energy>  (524) 
-4.3

>  <QM_Energy>  (524) 
-9.5

>  <source>  (524) 
ETAM_MSM

>  <Index>  (524) 
3068

$$$$
ETAM-pdb2rio-B-LYS-361:MSM-pdb2rio-B-MET-368
     RDKit          3D

 20 18  0  0  0  0  0  0  0  0999 V2000
    1.2045    0.8838   -0.0000 C   0  0  0  0  0  0  0  0  0  0  0  0
    1.1626    1.5057    0.7683 H   0  0  0  0  0  0  0  0  0  0  0  0
    1.2570    1.3766   -0.8565 H   0  0  0  0  0  0  0  0  0  0  0  0
    2.1092    0.2844    0.1013 H   0  0  0  0  0  0  0  0  0  0  0  0
    0.0000    0.0000    0.0000 C   0  0  0  0  0  0  0  0  0  0  0  0
    0.0168   -0.5792   -0.8164 H   0  0  0  0  0  0  0  0  0  0  0  0
    0.0168   -0.5792    0.8160 H   0  0  0  0  0  0  0  0  0  0  0  0
   -1.2045    0.8165    0.0000 N   0  0  0  0  0  4  0  0  0  0  0  0
   -0.9954    1.7453   -0.3241 H   0  0  0  0  0  0  0  0  0  0  0  0
   -1.8990    0.4131   -0.6048 H   0  0  0  0  0  0  0  0  0  0  0  0
   -1.5839    0.8770    0.9285 H   0  0  0  0  0  0  0  0  0  0  0  0
   -6.2415   -0.5039    1.4130 C   0  0  0  0  0  0  0  0  0  0  0  0
   -6.0507   -0.5219    0.4177 H   0  0  0  0  0  0  0  0  0  0  0  0
   -7.1863   -0.1578    1.5339 H   0  0  0  0  0  0  0  0  0  0  0  0
   -6.1636   -1.5119    1.8204 H   0  0  0  0  0  0  0  0  0  0  0  0
   -5.0431    0.6849    2.2449 S   0  0  0  0  0  0  0  0  0  0  0  0
   -3.6076    0.2481    1.1929 C   0  0  0  0  0  0  0  0  0  0  0  0
   -3.8771   -0.4885    0.5819 H   0  0  0  0  0  0  0  0  0  0  0  0
   -3.3428    1.0520    0.6714 H   0  0  0  0  0  0  0  0  0  0  0  0
   -2.8627   -0.0442    1.7826 H   0  0  0  0  0  0  0  0  0  0  0  0
  1  5  1  0
  5  8  1  0
  1  2  1  0
  1  3  1  0
  1  4  1  0
  5  6  1  0
  5  7  1  0
  8  9  1  0
  8 10  1  0
  8 11  1  0
 12 16  1  0
 16 17  1  0
 12 13  1  0
 12 14  1  0
 12 15  1  0
 17 18  1  0
 17 19  1  0
 17 20  1  0
M  CHG  1   8   1
M  END
>  <PDB_ID>  (525) 
pdb2rio

>  <RESIDUE_NAME>  (525) 
LYS   MET

>  <FRAG_NAME>  (525) 
ETAM   MSM

>  <FRAG_ATOM_NUM>  (525) 
fragi: 11  fragj: 9

>  <atom.prop.CHAIN_ID>  (525) 
A A A A A A A A A A A Z Z Z Z Z Z Z Z Z

>  <atom.prop.IS_HEAVY_ATOM>  (525) 
1 0 0 0 1 0 0 1 0 0 0 1 0 0 0 1 1 0 0 0

>  <DIFUSE_FUNC_ATOM>  (525) 
n/a

>  <FINAL_SINGLE_POINT_ENERGY>  (525) 
0

>  <NONCOV_INTER_ENERGY_QM>  (525) 
0

>  <FF_Energy>  (525) 
11.53

>  <QM_Energy>  (525) 
4.42

>  <source>  (525) 
ETAM_MSM

>  <Index>  (525) 
3075

$$$$
ETAM-pdb1o94-F-LYS-148:MSM-pdb1o94-E-MET-226
     RDKit          3D

 20 18  0  0  0  0  0  0  0  0999 V2000
    1.2570    0.8674   -0.0000 C   0  0  0  0  0  0  0  0  0  0  0  0
    1.0004    1.7956    0.1739 H   0  0  0  0  0  0  0  0  0  0  0  0
    1.7207    0.7514   -0.8536 H   0  0  0  0  0  0  0  0  0  0  0  0
    1.9051    0.5226    0.8058 H   0  0  0  0  0  0  0  0  0  0  0  0
    0.0000    0.0000    0.0000 C   0  0  0  0  0  0  0  0  0  0  0  0
    0.0253   -0.5979   -0.8162 H   0  0  0  0  0  0  0  0  0  0  0  0
    0.0251   -0.5979    0.8165 H   0  0  0  0  0  0  0  0  0  0  0  0
   -1.2570    0.7762    0.0000 N   0  0  0  0  0  4  0  0  0  0  0  0
   -1.1333    1.6173   -0.5291 H   0  0  0  0  0  0  0  0  0  0  0  0
   -1.9897    0.2308   -0.4108 H   0  0  0  0  0  0  0  0  0  0  0  0
   -1.5079    1.0113    0.9410 H   0  0  0  0  0  0  0  0  0  0  0  0
   -4.0065    3.5783    3.0172 C   0  0  0  0  0  0  0  0  0  0  0  0
   -4.7025    4.2391    3.4382 H   0  0  0  0  0  0  0  0  0  0  0  0
   -3.2028    4.2120    2.7927 H   0  0  0  0  0  0  0  0  0  0  0  0
   -3.6783    2.9065    3.8103 H   0  0  0  0  0  0  0  0  0  0  0  0
   -4.6897    2.8514    1.4604 S   0  0  0  0  0  0  0  0  0  0  0  0
   -3.3243    2.5030    0.6406 C   0  0  0  0  0  0  0  0  0  0  0  0
   -2.4631    2.6276    1.1939 H   0  0  0  0  0  0  0  0  0  0  0  0
   -3.2803    1.5311    0.2994 H   0  0  0  0  0  0  0  0  0  0  0  0
   -3.1832    3.0835   -0.1993 H   0  0  0  0  0  0  0  0  0  0  0  0
  1  5  1  0
  5  8  1  0
  1  2  1  0
  1  3  1  0
  1  4  1  0
  5  6  1  0
  5  7  1  0
  8  9  1  0
  8 10  1  0
  8 11  1  0
 12 16  1  0
 16 17  1  0
 12 13  1  0
 12 14  1  0
 12 15  1  0
 17 18  1  0
 17 19  1  0
 17 20  1  0
M  CHG  1   8   1
M  END
>  <PDB_ID>  (526) 
pdb1o94

>  <RESIDUE_NAME>  (526) 
LYS   MET

>  <FRAG_NAME>  (526) 
ETAM   MSM

>  <FRAG_ATOM_NUM>  (526) 
fragi: 11  fragj: 9

>  <atom.prop.CHAIN_ID>  (526) 
A A A A A A A A A A A Z Z Z Z Z Z Z Z Z

>  <atom.prop.IS_HEAVY_ATOM>  (526) 
1 0 0 0 1 0 0 1 0 0 0 1 0 0 0 1 1 0 0 0

>  <DIFUSE_FUNC_ATOM>  (526) 
n/a

>  <FINAL_SINGLE_POINT_ENERGY>  (526) 
0

>  <NONCOV_INTER_ENERGY_QM>  (526) 
0

>  <FF_Energy>  (526) 
13.65

>  <QM_Energy>  (526) 
4.93

>  <source>  (526) 
ETAM_MSM

>  <Index>  (526) 
3076

$$$$
ETAM-pdb2uxh-B-LYS-55:MSM-pdb2uxh-B-MET-123
     RDKit          3D

 20 18  0  0  0  0  0  0  0  0999 V2000
    1.2149    0.8969   -0.0000 C   0  0  0  0  0  0  0  0  0  0  0  0
    1.2225    1.4265    0.8420 H   0  0  0  0  0  0  0  0  0  0  0  0
    1.1673    1.5010   -0.7884 H   0  0  0  0  0  0  0  0  0  0  0  0
    2.1338    0.3134   -0.0570 H   0  0  0  0  0  0  0  0  0  0  0  0
    0.0000    0.0000    0.0000 C   0  0  0  0  0  0  0  0  0  0  0  0
    0.0148   -0.5688   -0.8165 H   0  0  0  0  0  0  0  0  0  0  0  0
    0.0145   -0.5689    0.8167 H   0  0  0  0  0  0  0  0  0  0  0  0
   -1.2149    0.8347   -0.0000 N   0  0  0  0  0  4  0  0  0  0  0  0
   -1.0870    1.6187   -0.6097 H   0  0  0  0  0  0  0  0  0  0  0  0
   -1.9972    0.2945   -0.3182 H   0  0  0  0  0  0  0  0  0  0  0  0
   -1.3984    1.1657    0.9279 H   0  0  0  0  0  0  0  0  0  0  0  0
   -2.4680   -3.7090   -2.6753 C   0  0  0  0  0  0  0  0  0  0  0  0
   -2.4065   -3.4882   -3.6433 H   0  0  0  0  0  0  0  0  0  0  0  0
   -3.3344   -3.3923   -2.3033 H   0  0  0  0  0  0  0  0  0  0  0  0
   -2.3762   -4.7861   -2.5356 H   0  0  0  0  0  0  0  0  0  0  0  0
   -1.0914   -3.0059   -1.7728 S   0  0  0  0  0  0  0  0  0  0  0  0
    0.2723   -3.3289   -2.9183 C   0  0  0  0  0  0  0  0  0  0  0  0
    1.0581   -3.6654   -2.4035 H   0  0  0  0  0  0  0  0  0  0  0  0
   -0.0155   -4.0145   -3.5842 H   0  0  0  0  0  0  0  0  0  0  0  0
    0.5126   -2.4809   -3.3872 H   0  0  0  0  0  0  0  0  0  0  0  0
  1  5  1  0
  5  8  1  0
  1  2  1  0
  1  3  1  0
  1  4  1  0
  5  6  1  0
  5  7  1  0
  8  9  1  0
  8 10  1  0
  8 11  1  0
 12 16  1  0
 16 17  1  0
 12 13  1  0
 12 14  1  0
 12 15  1  0
 17 18  1  0
 17 19  1  0
 17 20  1  0
M  CHG  1   8   1
M  END
>  <PDB_ID>  (527) 
pdb2uxh

>  <RESIDUE_NAME>  (527) 
LYS   MET

>  <FRAG_NAME>  (527) 
ETAM   MSM

>  <FRAG_ATOM_NUM>  (527) 
fragi: 11  fragj: 9

>  <atom.prop.CHAIN_ID>  (527) 
A A A A A A A A A A A Z Z Z Z Z Z Z Z Z

>  <atom.prop.IS_HEAVY_ATOM>  (527) 
1 0 0 0 1 0 0 1 0 0 0 1 0 0 0 1 1 0 0 0

>  <DIFUSE_FUNC_ATOM>  (527) 
n/a

>  <FINAL_SINGLE_POINT_ENERGY>  (527) 
0

>  <NONCOV_INTER_ENERGY_QM>  (527) 
0

>  <FF_Energy>  (527) 
-4.03

>  <QM_Energy>  (527) 
-9.2

>  <source>  (527) 
ETAM_MSM

>  <Index>  (527) 
3090

$$$$
ETAM-pdb1oc4-A-LYS-62:MSM-pdb1oc4-A-MET-58
     RDKit          3D

 20 18  0  0  0  0  0  0  0  0999 V2000
    1.2020    0.9367   -0.0000 C   0  0  0  0  0  0  0  0  0  0  0  0
    1.2758    1.3600    0.9053 H   0  0  0  0  0  0  0  0  0  0  0  0
    1.0493    1.6495   -0.6861 H   0  0  0  0  0  0  0  0  0  0  0  0
    2.1433    0.4352   -0.2245 H   0  0  0  0  0  0  0  0  0  0  0  0
    0.0000    0.0000    0.0000 C   0  0  0  0  0  0  0  0  0  0  0  0
    0.0178   -0.5447   -0.8156 H   0  0  0  0  0  0  0  0  0  0  0  0
    0.0173   -0.5442    0.8164 H   0  0  0  0  0  0  0  0  0  0  0  0
   -1.2020    0.8676    0.0000 N   0  0  0  0  0  4  0  0  0  0  0  0
   -0.9384    1.8048    0.2320 H   0  0  0  0  0  0  0  0  0  0  0  0
   -1.6238    0.8556   -0.9078 H   0  0  0  0  0  0  0  0  0  0  0  0
   -1.8578    0.5303    0.6762 H   0  0  0  0  0  0  0  0  0  0  0  0
    1.0244   -0.3874    4.0060 C   0  0  0  0  0  0  0  0  0  0  0  0
    1.6904   -0.8428    3.3778 H   0  0  0  0  0  0  0  0  0  0  0  0
    0.2185   -1.0127    4.0631 H   0  0  0  0  0  0  0  0  0  0  0  0
    1.4785   -0.3265    4.9950 H   0  0  0  0  0  0  0  0  0  0  0  0
    0.5327    1.2386    3.3539 S   0  0  0  0  0  0  0  0  0  0  0  0
   -0.8614    1.6689    4.4191 C   0  0  0  0  0  0  0  0  0  0  0  0
   -1.1404    0.8617    4.9367 H   0  0  0  0  0  0  0  0  0  0  0  0
   -0.5830    2.3933    5.0469 H   0  0  0  0  0  0  0  0  0  0  0  0
   -1.6208    1.9853    3.8537 H   0  0  0  0  0  0  0  0  0  0  0  0
  1  5  1  0
  5  8  1  0
  1  2  1  0
  1  3  1  0
  1  4  1  0
  5  6  1  0
  5  7  1  0
  8  9  1  0
  8 10  1  0
  8 11  1  0
 12 16  1  0
 16 17  1  0
 12 13  1  0
 12 14  1  0
 12 15  1  0
 17 18  1  0
 17 19  1  0
 17 20  1  0
M  CHG  1   8   1
M  END
>  <PDB_ID>  (528) 
pdb1oc4

>  <RESIDUE_NAME>  (528) 
LYS   MET

>  <FRAG_NAME>  (528) 
ETAM   MSM

>  <FRAG_ATOM_NUM>  (528) 
fragi: 11  fragj: 9

>  <atom.prop.CHAIN_ID>  (528) 
A A A A A A A A A A A Z Z Z Z Z Z Z Z Z

>  <atom.prop.IS_HEAVY_ATOM>  (528) 
1 0 0 0 1 0 0 1 0 0 0 1 0 0 0 1 1 0 0 0

>  <DIFUSE_FUNC_ATOM>  (528) 
n/a

>  <FINAL_SINGLE_POINT_ENERGY>  (528) 
0

>  <NONCOV_INTER_ENERGY_QM>  (528) 
0

>  <FF_Energy>  (528) 
-2.82

>  <QM_Energy>  (528) 
-9.82

>  <source>  (528) 
ETAM_MSM

>  <Index>  (528) 
3093

$$$$
ETAM-pdb1oc4-B-LYS-62:MSM-pdb1oc4-B-MET-58
     RDKit          3D

 20 18  0  0  0  0  0  0  0  0999 V2000
    1.2549    0.9037   -0.0000 C   0  0  0  0  0  0  0  0  0  0  0  0
    1.2170    1.4830    0.7991 H   0  0  0  0  0  0  0  0  0  0  0  0
    1.2518    1.4338   -0.8331 H   0  0  0  0  0  0  0  0  0  0  0  0
    2.1617    0.3003    0.0381 H   0  0  0  0  0  0  0  0  0  0  0  0
    0.0000    0.0000    0.0000 C   0  0  0  0  0  0  0  0  0  0  0  0
    0.0201   -0.5691   -0.8167 H   0  0  0  0  0  0  0  0  0  0  0  0
    0.0198   -0.5697    0.8160 H   0  0  0  0  0  0  0  0  0  0  0  0
   -1.2549    0.8251    0.0000 N   0  0  0  0  0  4  0  0  0  0  0  0
   -2.0000    0.2826   -0.3810 H   0  0  0  0  0  0  0  0  0  0  0  0
   -1.4701    1.0886    0.9370 H   0  0  0  0  0  0  0  0  0  0  0  0
   -1.1085    1.6392   -0.5571 H   0  0  0  0  0  0  0  0  0  0  0  0
    0.1564   -2.7403    2.9790 C   0  0  0  0  0  0  0  0  0  0  0  0
    0.7243   -2.9608    2.1703 H   0  0  0  0  0  0  0  0  0  0  0  0
   -0.7722   -3.1069    2.8070 H   0  0  0  0  0  0  0  0  0  0  0  0
    0.5764   -3.2430    3.8502 H   0  0  0  0  0  0  0  0  0  0  0  0
    0.1125   -0.9833    3.2768 S   0  0  0  0  0  0  0  0  0  0  0  0
   -1.5921   -0.7925    3.8214 C   0  0  0  0  0  0  0  0  0  0  0  0
   -2.0579   -1.6758    3.7697 H   0  0  0  0  0  0  0  0  0  0  0  0
   -1.6039   -0.4627    4.7650 H   0  0  0  0  0  0  0  0  0  0  0  0
   -2.0572   -0.1342    3.2311 H   0  0  0  0  0  0  0  0  0  0  0  0
  1  5  1  0
  5  8  1  0
  1  2  1  0
  1  3  1  0
  1  4  1  0
  5  6  1  0
  5  7  1  0
  8  9  1  0
  8 10  1  0
  8 11  1  0
 12 16  1  0
 16 17  1  0
 12 13  1  0
 12 14  1  0
 12 15  1  0
 17 18  1  0
 17 19  1  0
 17 20  1  0
M  CHG  1   8   1
M  END
>  <PDB_ID>  (529) 
pdb1oc4

>  <RESIDUE_NAME>  (529) 
LYS   MET

>  <FRAG_NAME>  (529) 
ETAM   MSM

>  <FRAG_ATOM_NUM>  (529) 
fragi: 11  fragj: 9

>  <atom.prop.CHAIN_ID>  (529) 
A A A A A A A A A A A Z Z Z Z Z Z Z Z Z

>  <atom.prop.IS_HEAVY_ATOM>  (529) 
1 0 0 0 1 0 0 1 0 0 0 1 0 0 0 1 1 0 0 0

>  <DIFUSE_FUNC_ATOM>  (529) 
n/a

>  <FINAL_SINGLE_POINT_ENERGY>  (529) 
0

>  <NONCOV_INTER_ENERGY_QM>  (529) 
0

>  <FF_Energy>  (529) 
-1.0

>  <QM_Energy>  (529) 
-7.38

>  <source>  (529) 
ETAM_MSM

>  <Index>  (529) 
3116

$$$$
ETAM-pdb1ohr-A-LYS-20:MSM-pdb1ohr-A-MET-36
     RDKit          3D

 20 18  0  0  0  0  0  0  0  0999 V2000
    1.2359    0.9341   -0.0000 C   0  0  0  0  0  0  0  0  0  0  0  0
    2.0387    0.3752    0.0927 H   0  0  0  0  0  0  0  0  0  0  0  0
    1.1348    1.5704    0.7416 H   0  0  0  0  0  0  0  0  0  0  0  0
    1.2753    1.4758   -0.9450 H   0  0  0  0  0  0  0  0  0  0  0  0
    0.0000    0.0000    0.0000 C   0  0  0  0  0  0  0  0  0  0  0  0
    0.0386   -0.5638   -0.8160 H   0  0  0  0  0  0  0  0  0  0  0  0
    0.0383   -0.5642    0.8166 H   0  0  0  0  0  0  0  0  0  0  0  0
   -1.2359    0.8095   -0.0000 N   0  0  0  0  0  4  0  0  0  0  0  0
   -1.2456    1.4216    0.8390 H   0  0  0  0  0  0  0  0  0  0  0  0
   -1.2530    1.3972   -0.8574 H   0  0  0  0  0  0  0  0  0  0  0  0
   -2.0702    0.1899    0.0078 H   0  0  0  0  0  0  0  0  0  0  0  0
   -0.3365   -3.0355    3.7611 C   0  0  0  0  0  0  0  0  0  0  0  0
   -0.0356   -2.6412    4.6206 H   0  0  0  0  0  0  0  0  0  0  0  0
   -0.3223   -4.0275    3.8067 H   0  0  0  0  0  0  0  0  0  0  0  0
   -1.3590   -2.7101    3.5689 H   0  0  0  0  0  0  0  0  0  0  0  0
    0.6203   -2.4260    2.3858 S   0  0  0  0  0  0  0  0  0  0  0  0
    0.8698   -0.8108    3.1579 C   0  0  0  0  0  0  0  0  0  0  0  0
    0.1873   -0.6823    3.8759 H   0  0  0  0  0  0  0  0  0  0  0  0
    1.7865   -0.7736    3.5517 H   0  0  0  0  0  0  0  0  0  0  0  0
    0.7706   -0.0983    2.4654 H   0  0  0  0  0  0  0  0  0  0  0  0
  1  5  1  0
  5  8  1  0
  1  2  1  0
  1  3  1  0
  1  4  1  0
  5  6  1  0
  5  7  1  0
  8  9  1  0
  8 10  1  0
  8 11  1  0
 12 16  1  0
 16 17  1  0
 12 13  1  0
 12 14  1  0
 12 15  1  0
 17 18  1  0
 17 19  1  0
 17 20  1  0
M  CHG  1   8   1
M  END
>  <PDB_ID>  (530) 
pdb1ohr

>  <RESIDUE_NAME>  (530) 
LYS   MET

>  <FRAG_NAME>  (530) 
ETAM   MSM

>  <FRAG_ATOM_NUM>  (530) 
fragi: 11  fragj: 9

>  <atom.prop.CHAIN_ID>  (530) 
A A A A A A A A A A A Z Z Z Z Z Z Z Z Z

>  <atom.prop.IS_HEAVY_ATOM>  (530) 
1 0 0 0 1 0 0 1 0 0 0 1 0 0 0 1 1 0 0 0

>  <DIFUSE_FUNC_ATOM>  (530) 
n/a

>  <FINAL_SINGLE_POINT_ENERGY>  (530) 
0

>  <NONCOV_INTER_ENERGY_QM>  (530) 
0

>  <FF_Energy>  (530) 
4.29

>  <QM_Energy>  (530) 
-3.62

>  <source>  (530) 
ETAM_MSM

>  <Index>  (530) 
3129

$$$$
ETAM-pdb2v2q-A-LYS-254:MSM-pdb2v2q-A-MET-258
     RDKit          3D

 20 18  0  0  0  0  0  0  0  0999 V2000
    1.2434    0.8832    0.0000 C   0  0  0  0  0  0  0  0  0  0  0  0
    1.1152    1.6052    0.6658 H   0  0  0  0  0  0  0  0  0  0  0  0
    1.3647    1.2542   -0.9095 H   0  0  0  0  0  0  0  0  0  0  0  0
    2.1238    0.2998    0.2695 H   0  0  0  0  0  0  0  0  0  0  0  0
    0.0000    0.0000    0.0000 C   0  0  0  0  0  0  0  0  0  0  0  0
    0.0198   -0.5824   -0.8162 H   0  0  0  0  0  0  0  0  0  0  0  0
    0.0193   -0.5823    0.8160 H   0  0  0  0  0  0  0  0  0  0  0  0
   -1.2434    0.8063   -0.0000 N   0  0  0  0  0  4  0  0  0  0  0  0
   -1.0235    1.7615   -0.2023 H   0  0  0  0  0  0  0  0  0  0  0  0
   -1.8698    0.4550   -0.6963 H   0  0  0  0  0  0  0  0  0  0  0  0
   -1.6792    0.7495    0.8987 H   0  0  0  0  0  0  0  0  0  0  0  0
   -0.3836    0.7480    3.8403 C   0  0  0  0  0  0  0  0  0  0  0  0
    0.2707    1.3373    3.3188 H   0  0  0  0  0  0  0  0  0  0  0  0
   -0.1971   -0.2113    3.5378 H   0  0  0  0  0  0  0  0  0  0  0  0
   -0.1473    0.8270    4.9015 H   0  0  0  0  0  0  0  0  0  0  0  0
   -2.0880    1.2123    3.4844 S   0  0  0  0  0  0  0  0  0  0  0  0
   -2.9237   -0.2946    3.9613 C   0  0  0  0  0  0  0  0  0  0  0  0
   -3.0176   -0.3278    4.9580 H   0  0  0  0  0  0  0  0  0  0  0  0
   -3.8335   -0.3225    3.5429 H   0  0  0  0  0  0  0  0  0  0  0  0
   -2.3937   -1.0870    3.6527 H   0  0  0  0  0  0  0  0  0  0  0  0
  1  5  1  0
  5  8  1  0
  1  2  1  0
  1  3  1  0
  1  4  1  0
  5  6  1  0
  5  7  1  0
  8  9  1  0
  8 10  1  0
  8 11  1  0
 12 16  1  0
 16 17  1  0
 12 13  1  0
 12 14  1  0
 12 15  1  0
 17 18  1  0
 17 19  1  0
 17 20  1  0
M  CHG  1   8   1
M  END
>  <PDB_ID>  (531) 
pdb2v2q

>  <RESIDUE_NAME>  (531) 
LYS   MET

>  <FRAG_NAME>  (531) 
ETAM   MSM

>  <FRAG_ATOM_NUM>  (531) 
fragi: 11  fragj: 9

>  <atom.prop.CHAIN_ID>  (531) 
A A A A A A A A A A A Z Z Z Z Z Z Z Z Z

>  <atom.prop.IS_HEAVY_ATOM>  (531) 
1 0 0 0 1 0 0 1 0 0 0 1 0 0 0 1 1 0 0 0

>  <DIFUSE_FUNC_ATOM>  (531) 
n/a

>  <FINAL_SINGLE_POINT_ENERGY>  (531) 
0

>  <NONCOV_INTER_ENERGY_QM>  (531) 
0

>  <FF_Energy>  (531) 
-4.78

>  <QM_Energy>  (531) 
-13.84

>  <source>  (531) 
ETAM_MSM

>  <Index>  (531) 
3139

$$$$
ETAM-pdb2v27-B-LYS-265:MSM-pdb2v27-A-MET-220
     RDKit          3D

 20 18  0  0  0  0  0  0  0  0999 V2000
    1.2041    0.9002   -0.0000 C   0  0  0  0  0  0  0  0  0  0  0  0
    1.1966    1.4639    0.8054 H   0  0  0  0  0  0  0  0  0  0  0  0
    1.2220    1.4291   -0.8276 H   0  0  0  0  0  0  0  0  0  0  0  0
    2.1022    0.2833    0.0277 H   0  0  0  0  0  0  0  0  0  0  0  0
    0.0000    0.0000    0.0000 C   0  0  0  0  0  0  0  0  0  0  0  0
   -0.0031   -0.5524   -0.8162 H   0  0  0  0  0  0  0  0  0  0  0  0
   -0.0033   -0.5523    0.8167 H   0  0  0  0  0  0  0  0  0  0  0  0
   -1.2041    0.8809    0.0000 N   0  0  0  0  0  4  0  0  0  0  0  0
   -0.9135    1.8358    0.0345 H   0  0  0  0  0  0  0  0  0  0  0  0
   -1.7308    0.7190   -0.8336 H   0  0  0  0  0  0  0  0  0  0  0  0
   -1.7661    0.6709    0.7987 H   0  0  0  0  0  0  0  0  0  0  0  0
    0.1611    4.6601   -3.4883 C   0  0  0  0  0  0  0  0  0  0  0  0
    0.8726    4.1326   -3.9831 H   0  0  0  0  0  0  0  0  0  0  0  0
    0.3198    5.6418   -3.6909 H   0  0  0  0  0  0  0  0  0  0  0  0
   -0.8169    4.3765   -3.8771 H   0  0  0  0  0  0  0  0  0  0  0  0
    0.2871    4.3558   -1.6778 S   0  0  0  0  0  0  0  0  0  0  0  0
   -0.8743    5.5731   -0.9977 C   0  0  0  0  0  0  0  0  0  0  0  0
   -1.2827    6.0855   -1.7486 H   0  0  0  0  0  0  0  0  0  0  0  0
   -1.5835    5.0941   -0.4869 H   0  0  0  0  0  0  0  0  0  0  0  0
   -0.3785    6.1917   -0.3925 H   0  0  0  0  0  0  0  0  0  0  0  0
  1  5  1  0
  5  8  1  0
  1  2  1  0
  1  3  1  0
  1  4  1  0
  5  6  1  0
  5  7  1  0
  8  9  1  0
  8 10  1  0
  8 11  1  0
 12 16  1  0
 16 17  1  0
 12 13  1  0
 12 14  1  0
 12 15  1  0
 17 18  1  0
 17 19  1  0
 17 20  1  0
M  CHG  1   8   1
M  END
>  <PDB_ID>  (532) 
pdb2v27

>  <RESIDUE_NAME>  (532) 
LYS   MET

>  <FRAG_NAME>  (532) 
ETAM   MSM

>  <FRAG_ATOM_NUM>  (532) 
fragi: 11  fragj: 9

>  <atom.prop.CHAIN_ID>  (532) 
A A A A A A A A A A A Z Z Z Z Z Z Z Z Z

>  <atom.prop.IS_HEAVY_ATOM>  (532) 
1 0 0 0 1 0 0 1 0 0 0 1 0 0 0 1 1 0 0 0

>  <DIFUSE_FUNC_ATOM>  (532) 
n/a

>  <FINAL_SINGLE_POINT_ENERGY>  (532) 
0

>  <NONCOV_INTER_ENERGY_QM>  (532) 
0

>  <FF_Energy>  (532) 
-4.05

>  <QM_Energy>  (532) 
-9.85

>  <source>  (532) 
ETAM_MSM

>  <Index>  (532) 
3148

$$$$
ETAM-pdb2v27-A-LYS-265:MSM-pdb2v27-B-MET-220
     RDKit          3D

 20 18  0  0  0  0  0  0  0  0999 V2000
    1.1590    0.9049   -0.0000 C   0  0  0  0  0  0  0  0  0  0  0  0
    1.1730    1.4515    0.8170 H   0  0  0  0  0  0  0  0  0  0  0  0
    1.1725    1.4527   -0.8156 H   0  0  0  0  0  0  0  0  0  0  0  0
    2.0622    0.2947   -0.0005 H   0  0  0  0  0  0  0  0  0  0  0  0
    0.0000    0.0000    0.0000 C   0  0  0  0  0  0  0  0  0  0  0  0
   -0.0376   -0.5198   -0.8160 H   0  0  0  0  0  0  0  0  0  0  0  0
   -0.0379   -0.5205    0.8168 H   0  0  0  0  0  0  0  0  0  0  0  0
   -1.1590    0.9701    0.0000 N   0  0  0  0  0  4  0  0  0  0  0  0
   -0.9083    1.7678    0.5410 H   0  0  0  0  0  0  0  0  0  0  0  0
   -1.3512    1.2386   -0.9394 H   0  0  0  0  0  0  0  0  0  0  0  0
   -1.9529    0.5194    0.3981 H   0  0  0  0  0  0  0  0  0  0  0  0
   -0.2581    5.2338   -2.4321 C   0  0  0  0  0  0  0  0  0  0  0  0
    0.4789    4.8794   -3.0546 H   0  0  0  0  0  0  0  0  0  0  0  0
   -0.1408    6.2556   -2.4314 H   0  0  0  0  0  0  0  0  0  0  0  0
   -1.2197    5.0085   -2.8934 H   0  0  0  0  0  0  0  0  0  0  0  0
   -0.0640    4.5614   -0.7544 S   0  0  0  0  0  0  0  0  0  0  0  0
   -1.2887    5.5695    0.1308 C   0  0  0  0  0  0  0  0  0  0  0  0
   -2.1839    5.1399    0.0435 H   0  0  0  0  0  0  0  0  0  0  0  0
   -1.0277    5.6248    1.0914 H   0  0  0  0  0  0  0  0  0  0  0  0
   -1.3074    6.4817   -0.2708 H   0  0  0  0  0  0  0  0  0  0  0  0
  1  5  1  0
  5  8  1  0
  1  2  1  0
  1  3  1  0
  1  4  1  0
  5  6  1  0
  5  7  1  0
  8  9  1  0
  8 10  1  0
  8 11  1  0
 12 16  1  0
 16 17  1  0
 12 13  1  0
 12 14  1  0
 12 15  1  0
 17 18  1  0
 17 19  1  0
 17 20  1  0
M  CHG  1   8   1
M  END
>  <PDB_ID>  (533) 
pdb2v27

>  <RESIDUE_NAME>  (533) 
LYS   MET

>  <FRAG_NAME>  (533) 
ETAM   MSM

>  <FRAG_ATOM_NUM>  (533) 
fragi: 11  fragj: 9

>  <atom.prop.CHAIN_ID>  (533) 
A A A A A A A A A A A Z Z Z Z Z Z Z Z Z

>  <atom.prop.IS_HEAVY_ATOM>  (533) 
1 0 0 0 1 0 0 1 0 0 0 1 0 0 0 1 1 0 0 0

>  <DIFUSE_FUNC_ATOM>  (533) 
n/a

>  <FINAL_SINGLE_POINT_ENERGY>  (533) 
0

>  <NONCOV_INTER_ENERGY_QM>  (533) 
0

>  <FF_Energy>  (533) 
-4.75

>  <QM_Energy>  (533) 
-10.93

>  <source>  (533) 
ETAM_MSM

>  <Index>  (533) 
3151

$$$$
ETAM-pdb2v40-A-LYS-228:MSM-pdb2v40-A-MET-224
     RDKit          3D

 20 18  0  0  0  0  0  0  0  0999 V2000
    1.2387    0.8551    0.0000 C   0  0  0  0  0  0  0  0  0  0  0  0
    1.0295    1.7322    0.4213 H   0  0  0  0  0  0  0  0  0  0  0  0
    1.5419    0.9883   -0.9385 H   0  0  0  0  0  0  0  0  0  0  0  0
    2.0464    0.3862    0.5621 H   0  0  0  0  0  0  0  0  0  0  0  0
    0.0000    0.0000    0.0000 C   0  0  0  0  0  0  0  0  0  0  0  0
   -0.0065   -0.5788   -0.8163 H   0  0  0  0  0  0  0  0  0  0  0  0
   -0.0072   -0.5787    0.8165 H   0  0  0  0  0  0  0  0  0  0  0  0
   -1.2387    0.8451   -0.0000 N   0  0  0  0  0  4  0  0  0  0  0  0
   -1.6600    0.8057   -0.9033 H   0  0  0  0  0  0  0  0  0  0  0  0
   -1.8721    0.4946    0.6859 H   0  0  0  0  0  0  0  0  0  0  0  0
   -0.9908    1.7862    0.2176 H   0  0  0  0  0  0  0  0  0  0  0  0
   -0.2912    4.2115    3.1527 C   0  0  0  0  0  0  0  0  0  0  0  0
    0.2969    3.5391    3.6364 H   0  0  0  0  0  0  0  0  0  0  0  0
   -1.2393    4.0719    3.4903 H   0  0  0  0  0  0  0  0  0  0  0  0
    0.0295    5.2121    3.4425 H   0  0  0  0  0  0  0  0  0  0  0  0
   -0.1934    4.0080    1.3788 S   0  0  0  0  0  0  0  0  0  0  0  0
   -1.4787    5.1397    0.8577 C   0  0  0  0  0  0  0  0  0  0  0  0
   -1.2909    6.0533    1.2213 H   0  0  0  0  0  0  0  0  0  0  0  0
   -1.5058    5.1812   -0.1427 H   0  0  0  0  0  0  0  0  0  0  0  0
   -2.3644    4.8230    1.2003 H   0  0  0  0  0  0  0  0  0  0  0  0
  1  5  1  0
  5  8  1  0
  1  2  1  0
  1  3  1  0
  1  4  1  0
  5  6  1  0
  5  7  1  0
  8  9  1  0
  8 10  1  0
  8 11  1  0
 12 16  1  0
 16 17  1  0
 12 13  1  0
 12 14  1  0
 12 15  1  0
 17 18  1  0
 17 19  1  0
 17 20  1  0
M  CHG  1   8   1
M  END
>  <PDB_ID>  (534) 
pdb2v40

>  <RESIDUE_NAME>  (534) 
LYS   MET

>  <FRAG_NAME>  (534) 
ETAM   MSM

>  <FRAG_ATOM_NUM>  (534) 
fragi: 11  fragj: 9

>  <atom.prop.CHAIN_ID>  (534) 
A A A A A A A A A A A Z Z Z Z Z Z Z Z Z

>  <atom.prop.IS_HEAVY_ATOM>  (534) 
1 0 0 0 1 0 0 1 0 0 0 1 0 0 0 1 1 0 0 0

>  <DIFUSE_FUNC_ATOM>  (534) 
n/a

>  <FINAL_SINGLE_POINT_ENERGY>  (534) 
0

>  <NONCOV_INTER_ENERGY_QM>  (534) 
0

>  <FF_Energy>  (534) 
-5.0

>  <QM_Energy>  (534) 
-14.5

>  <source>  (534) 
ETAM_MSM

>  <Index>  (534) 
3155

$$$$
ETAM-pdb1omo-A-LYS-41:MSM-pdb1omo-A-MET-54
     RDKit          3D

 20 18  0  0  0  0  0  0  0  0999 V2000
    1.2461    0.8751   -0.0000 C   0  0  0  0  0  0  0  0  0  0  0  0
    1.2823    1.3797    0.8467 H   0  0  0  0  0  0  0  0  0  0  0  0
    1.2158    1.4740   -0.7825 H   0  0  0  0  0  0  0  0  0  0  0  0
    2.1365    0.2504   -0.0721 H   0  0  0  0  0  0  0  0  0  0  0  0
    0.0000    0.0000    0.0000 C   0  0  0  0  0  0  0  0  0  0  0  0
    0.0202   -0.5881   -0.8162 H   0  0  0  0  0  0  0  0  0  0  0  0
    0.0195   -0.5887    0.8163 H   0  0  0  0  0  0  0  0  0  0  0  0
   -1.2461    0.7969    0.0000 N   0  0  0  0  0  4  0  0  0  0  0  0
   -2.0302    0.1954    0.1635 H   0  0  0  0  0  0  0  0  0  0  0  0
   -1.2030    1.4885    0.7227 H   0  0  0  0  0  0  0  0  0  0  0  0
   -1.3554    1.2497   -0.8858 H   0  0  0  0  0  0  0  0  0  0  0  0
    1.9890   -0.2107   -4.0862 C   0  0  0  0  0  0  0  0  0  0  0  0
    2.3911   -0.1482   -3.1283 H   0  0  0  0  0  0  0  0  0  0  0  0
    2.4753    0.5518   -4.6012 H   0  0  0  0  0  0  0  0  0  0  0  0
    2.3104   -1.1587   -4.5176 H   0  0  0  0  0  0  0  0  0  0  0  0
    0.2037    0.0845   -4.0489 S   0  0  0  0  0  0  0  0  0  0  0  0
   -0.3911   -1.4772   -3.3562 C   0  0  0  0  0  0  0  0  0  0  0  0
    0.2610   -2.2012   -3.5737 H   0  0  0  0  0  0  0  0  0  0  0  0
   -0.4756   -1.3842   -2.3659 H   0  0  0  0  0  0  0  0  0  0  0  0
   -1.2817   -1.6931   -3.7530 H   0  0  0  0  0  0  0  0  0  0  0  0
  1  5  1  0
  5  8  1  0
  1  2  1  0
  1  3  1  0
  1  4  1  0
  5  6  1  0
  5  7  1  0
  8  9  1  0
  8 10  1  0
  8 11  1  0
 12 16  1  0
 16 17  1  0
 12 13  1  0
 12 14  1  0
 12 15  1  0
 17 18  1  0
 17 19  1  0
 17 20  1  0
M  CHG  1   8   1
M  END
>  <PDB_ID>  (535) 
pdb1omo

>  <RESIDUE_NAME>  (535) 
LYS   MET

>  <FRAG_NAME>  (535) 
ETAM   MSM

>  <FRAG_ATOM_NUM>  (535) 
fragi: 11  fragj: 9

>  <atom.prop.CHAIN_ID>  (535) 
A A A A A A A A A A A Z Z Z Z Z Z Z Z Z

>  <atom.prop.IS_HEAVY_ATOM>  (535) 
1 0 0 0 1 0 0 1 0 0 0 1 0 0 0 1 1 0 0 0

>  <DIFUSE_FUNC_ATOM>  (535) 
n/a

>  <FINAL_SINGLE_POINT_ENERGY>  (535) 
0

>  <NONCOV_INTER_ENERGY_QM>  (535) 
0

>  <FF_Energy>  (535) 
0.19

>  <QM_Energy>  (535) 
-5.08

>  <source>  (535) 
ETAM_MSM

>  <Index>  (535) 
3167

$$$$
ETAM-pdb1oni-D-LYS-117:MSM-pdb1oni-D-MET-39
     RDKit          3D

 20 18  0  0  0  0  0  0  0  0999 V2000
    1.2796    0.8560    0.0000 C   0  0  0  0  0  0  0  0  0  0  0  0
    1.3045    1.3708    0.8392 H   0  0  0  0  0  0  0  0  0  0  0  0
    1.2574    1.4410   -0.7920 H   0  0  0  0  0  0  0  0  0  0  0  0
    2.1521    0.2048   -0.0525 H   0  0  0  0  0  0  0  0  0  0  0  0
    0.0000    0.0000    0.0000 C   0  0  0  0  0  0  0  0  0  0  0  0
    0.0166   -0.5995   -0.8159 H   0  0  0  0  0  0  0  0  0  0  0  0
    0.0164   -0.5994    0.8162 H   0  0  0  0  0  0  0  0  0  0  0  0
   -1.2796    0.7845    0.0000 N   0  0  0  0  0  4  0  0  0  0  0  0
   -1.4273    1.1650   -0.9101 H   0  0  0  0  0  0  0  0  0  0  0  0
   -2.0333    0.1772    0.2412 H   0  0  0  0  0  0  0  0  0  0  0  0
   -1.2097    1.5212    0.6692 H   0  0  0  0  0  0  0  0  0  0  0  0
    0.0962    4.4193    2.5933 C   0  0  0  0  0  0  0  0  0  0  0  0
    0.0928    4.6498    1.6059 H   0  0  0  0  0  0  0  0  0  0  0  0
    1.0584    4.2411    2.8577 H   0  0  0  0  0  0  0  0  0  0  0  0
   -0.3046    5.2505    3.1734 H   0  0  0  0  0  0  0  0  0  0  0  0
   -0.9057    2.8789    2.8635 S   0  0  0  0  0  0  0  0  0  0  0  0
   -0.7046    2.5963    4.6496 C   0  0  0  0  0  0  0  0  0  0  0  0
   -0.5080    1.6313    4.8025 H   0  0  0  0  0  0  0  0  0  0  0  0
    0.0499    3.1562    4.9806 H   0  0  0  0  0  0  0  0  0  0  0  0
   -1.5488    2.8510    5.1127 H   0  0  0  0  0  0  0  0  0  0  0  0
  1  5  1  0
  5  8  1  0
  1  2  1  0
  1  3  1  0
  1  4  1  0
  5  6  1  0
  5  7  1  0
  8  9  1  0
  8 10  1  0
  8 11  1  0
 12 16  1  0
 16 17  1  0
 12 13  1  0
 12 14  1  0
 12 15  1  0
 17 18  1  0
 17 19  1  0
 17 20  1  0
M  CHG  1   8   1
M  END
>  <PDB_ID>  (536) 
pdb1oni

>  <RESIDUE_NAME>  (536) 
LYS   MET

>  <FRAG_NAME>  (536) 
ETAM   MSM

>  <FRAG_ATOM_NUM>  (536) 
fragi: 11  fragj: 9

>  <atom.prop.CHAIN_ID>  (536) 
A A A A A A A A A A A Z Z Z Z Z Z Z Z Z

>  <atom.prop.IS_HEAVY_ATOM>  (536) 
1 0 0 0 1 0 0 1 0 0 0 1 0 0 0 1 1 0 0 0

>  <DIFUSE_FUNC_ATOM>  (536) 
n/a

>  <FINAL_SINGLE_POINT_ENERGY>  (536) 
0

>  <NONCOV_INTER_ENERGY_QM>  (536) 
0

>  <FF_Energy>  (536) 
-5.79

>  <QM_Energy>  (536) 
-14.43

>  <source>  (536) 
ETAM_MSM

>  <Index>  (536) 
3177

$$$$
ETAM-pdb1oni-E-LYS-117:MSM-pdb1oni-E-MET-39
     RDKit          3D

 20 18  0  0  0  0  0  0  0  0999 V2000
    1.2366    0.8680   -0.0000 C   0  0  0  0  0  0  0  0  0  0  0  0
    1.2202    1.4597    0.8065 H   0  0  0  0  0  0  0  0  0  0  0  0
    1.2403    1.4304   -0.8269 H   0  0  0  0  0  0  0  0  0  0  0  0
    2.1619    0.2924    0.0224 H   0  0  0  0  0  0  0  0  0  0  0  0
    0.0000    0.0000    0.0000 C   0  0  0  0  0  0  0  0  0  0  0  0
   -0.0008   -0.5756   -0.8161 H   0  0  0  0  0  0  0  0  0  0  0  0
   -0.0008   -0.5762    0.8159 H   0  0  0  0  0  0  0  0  0  0  0  0
   -1.2366    0.8426   -0.0000 N   0  0  0  0  0  4  0  0  0  0  0  0
   -0.9774    1.8040   -0.0707 H   0  0  0  0  0  0  0  0  0  0  0  0
   -1.8063    0.5879   -0.7788 H   0  0  0  0  0  0  0  0  0  0  0  0
   -1.7380    0.6892    0.8494 H   0  0  0  0  0  0  0  0  0  0  0  0
   -0.6614    3.2078    4.0527 C   0  0  0  0  0  0  0  0  0  0  0  0
   -1.4832    3.8114    4.0449 H   0  0  0  0  0  0  0  0  0  0  0  0
   -0.0687    3.5214    3.2845 H   0  0  0  0  0  0  0  0  0  0  0  0
   -0.1305    3.3250    4.9974 H   0  0  0  0  0  0  0  0  0  0  0  0
   -1.1600    1.4772    3.7853 S   0  0  0  0  0  0  0  0  0  0  0  0
    0.3578    0.7423    3.3173 C   0  0  0  0  0  0  0  0  0  0  0  0
    0.2090   -0.1927    2.9707 H   0  0  0  0  0  0  0  0  0  0  0  0
    0.8051    1.2803    2.5917 H   0  0  0  0  0  0  0  0  0  0  0  0
    0.9864    0.6908    4.1044 H   0  0  0  0  0  0  0  0  0  0  0  0
  1  5  1  0
  5  8  1  0
  1  2  1  0
  1  3  1  0
  1  4  1  0
  5  6  1  0
  5  7  1  0
  8  9  1  0
  8 10  1  0
  8 11  1  0
 12 16  1  0
 16 17  1  0
 12 13  1  0
 12 14  1  0
 12 15  1  0
 17 18  1  0
 17 19  1  0
 17 20  1  0
M  CHG  1   8   1
M  END
>  <PDB_ID>  (537) 
pdb1oni

>  <RESIDUE_NAME>  (537) 
LYS   MET

>  <FRAG_NAME>  (537) 
ETAM   MSM

>  <FRAG_ATOM_NUM>  (537) 
fragi: 11  fragj: 9

>  <atom.prop.CHAIN_ID>  (537) 
A A A A A A A A A A A Z Z Z Z Z Z Z Z Z

>  <atom.prop.IS_HEAVY_ATOM>  (537) 
1 0 0 0 1 0 0 1 0 0 0 1 0 0 0 1 1 0 0 0

>  <DIFUSE_FUNC_ATOM>  (537) 
n/a

>  <FINAL_SINGLE_POINT_ENERGY>  (537) 
0

>  <NONCOV_INTER_ENERGY_QM>  (537) 
0

>  <FF_Energy>  (537) 
-0.37

>  <QM_Energy>  (537) 
-6.97

>  <source>  (537) 
ETAM_MSM

>  <Index>  (537) 
3178

$$$$
ETAM-pdb1oni-F-LYS-117:MSM-pdb1oni-F-MET-39
     RDKit          3D

 20 18  0  0  0  0  0  0  0  0999 V2000
    1.2354    0.8696   -0.0000 C   0  0  0  0  0  0  0  0  0  0  0  0
    1.3228    1.3014    0.8984 H   0  0  0  0  0  0  0  0  0  0  0  0
    1.1294    1.5773   -0.6993 H   0  0  0  0  0  0  0  0  0  0  0  0
    2.1439    0.3038   -0.2069 H   0  0  0  0  0  0  0  0  0  0  0  0
    0.0000    0.0000    0.0000 C   0  0  0  0  0  0  0  0  0  0  0  0
   -0.0033   -0.5724   -0.8157 H   0  0  0  0  0  0  0  0  0  0  0  0
   -0.0045   -0.5721    0.8166 H   0  0  0  0  0  0  0  0  0  0  0  0
   -1.2354    0.8515    0.0000 N   0  0  0  0  0  4  0  0  0  0  0  0
   -1.1057    1.6136    0.6314 H   0  0  0  0  0  0  0  0  0  0  0  0
   -1.3917    1.1974   -0.9221 H   0  0  0  0  0  0  0  0  0  0  0  0
   -2.0123    0.2979    0.2917 H   0  0  0  0  0  0  0  0  0  0  0  0
    0.2077    2.3610    4.4846 C   0  0  0  0  0  0  0  0  0  0  0  0
    0.3483    3.0733    3.7402 H   0  0  0  0  0  0  0  0  0  0  0  0
    1.1677    2.2047    4.8539 H   0  0  0  0  0  0  0  0  0  0  0  0
   -0.3933    2.8101    5.2754 H   0  0  0  0  0  0  0  0  0  0  0  0
   -0.4485    0.8305    3.7742 S   0  0  0  0  0  0  0  0  0  0  0  0
   -2.1899    0.9222    4.0844 C   0  0  0  0  0  0  0  0  0  0  0  0
   -2.3875    0.6499    5.0308 H   0  0  0  0  0  0  0  0  0  0  0  0
   -2.5177    1.8612    3.9427 H   0  0  0  0  0  0  0  0  0  0  0  0
   -2.6846    0.3088    3.4614 H   0  0  0  0  0  0  0  0  0  0  0  0
  1  5  1  0
  5  8  1  0
  1  2  1  0
  1  3  1  0
  1  4  1  0
  5  6  1  0
  5  7  1  0
  8  9  1  0
  8 10  1  0
  8 11  1  0
 12 16  1  0
 16 17  1  0
 12 13  1  0
 12 14  1  0
 12 15  1  0
 17 18  1  0
 17 19  1  0
 17 20  1  0
M  CHG  1   8   1
M  END
>  <PDB_ID>  (538) 
pdb1oni

>  <RESIDUE_NAME>  (538) 
LYS   MET

>  <FRAG_NAME>  (538) 
ETAM   MSM

>  <FRAG_ATOM_NUM>  (538) 
fragi: 11  fragj: 9

>  <atom.prop.CHAIN_ID>  (538) 
A A A A A A A A A A A Z Z Z Z Z Z Z Z Z

>  <atom.prop.IS_HEAVY_ATOM>  (538) 
1 0 0 0 1 0 0 1 0 0 0 1 0 0 0 1 1 0 0 0

>  <DIFUSE_FUNC_ATOM>  (538) 
n/a

>  <FINAL_SINGLE_POINT_ENERGY>  (538) 
0

>  <NONCOV_INTER_ENERGY_QM>  (538) 
0

>  <FF_Energy>  (538) 
-4.42

>  <QM_Energy>  (538) 
-10.53

>  <source>  (538) 
ETAM_MSM

>  <Index>  (538) 
3179

$$$$
ETAM-pdb1oni-I-LYS-117:MSM-pdb1oni-I-MET-39
     RDKit          3D

 20 18  0  0  0  0  0  0  0  0999 V2000
    1.2433    0.8673   -0.0000 C   0  0  0  0  0  0  0  0  0  0  0  0
    2.0467    0.2742   -0.0386 H   0  0  0  0  0  0  0  0  0  0  0  0
    1.2601    1.4018    0.8442 H   0  0  0  0  0  0  0  0  0  0  0  0
    1.2735    1.5516   -0.8479 H   0  0  0  0  0  0  0  0  0  0  0  0
    0.0000    0.0000    0.0000 C   0  0  0  0  0  0  0  0  0  0  0  0
    0.0161   -0.5901   -0.8160 H   0  0  0  0  0  0  0  0  0  0  0  0
    0.0159   -0.5900    0.8166 H   0  0  0  0  0  0  0  0  0  0  0  0
   -1.2433    0.7997    0.0000 N   0  0  0  0  0  4  0  0  0  0  0  0
   -1.1831    1.5158   -0.6977 H   0  0  0  0  0  0  0  0  0  0  0  0
   -2.0249    0.2070   -0.2008 H   0  0  0  0  0  0  0  0  0  0  0  0
   -1.3712    1.2238    0.8981 H   0  0  0  0  0  0  0  0  0  0  0  0
    1.1416   -0.5694    4.0490 C   0  0  0  0  0  0  0  0  0  0  0  0
    0.6346    0.2179    4.4457 H   0  0  0  0  0  0  0  0  0  0  0  0
    1.8757   -0.1809    3.4620 H   0  0  0  0  0  0  0  0  0  0  0  0
    1.5991   -1.1393    4.8578 H   0  0  0  0  0  0  0  0  0  0  0  0
    0.0535   -1.6196    3.1015 S   0  0  0  0  0  0  0  0  0  0  0  0
    1.2407   -2.9372    2.6775 C   0  0  0  0  0  0  0  0  0  0  0  0
    0.9056   -3.7999    3.0447 H   0  0  0  0  0  0  0  0  0  0  0  0
    1.3173   -2.9914    1.6858 H   0  0  0  0  0  0  0  0  0  0  0  0
    2.1234   -2.7132    3.0793 H   0  0  0  0  0  0  0  0  0  0  0  0
  1  5  1  0
  5  8  1  0
  1  2  1  0
  1  3  1  0
  1  4  1  0
  5  6  1  0
  5  7  1  0
  8  9  1  0
  8 10  1  0
  8 11  1  0
 12 16  1  0
 16 17  1  0
 12 13  1  0
 12 14  1  0
 12 15  1  0
 17 18  1  0
 17 19  1  0
 17 20  1  0
M  CHG  1   8   1
M  END
>  <PDB_ID>  (539) 
pdb1oni

>  <RESIDUE_NAME>  (539) 
LYS   MET

>  <FRAG_NAME>  (539) 
ETAM   MSM

>  <FRAG_ATOM_NUM>  (539) 
fragi: 11  fragj: 9

>  <atom.prop.CHAIN_ID>  (539) 
A A A A A A A A A A A Z Z Z Z Z Z Z Z Z

>  <atom.prop.IS_HEAVY_ATOM>  (539) 
1 0 0 0 1 0 0 1 0 0 0 1 0 0 0 1 1 0 0 0

>  <DIFUSE_FUNC_ATOM>  (539) 
n/a

>  <FINAL_SINGLE_POINT_ENERGY>  (539) 
0

>  <NONCOV_INTER_ENERGY_QM>  (539) 
0

>  <FF_Energy>  (539) 
-1.87

>  <QM_Energy>  (539) 
-8.33

>  <source>  (539) 
ETAM_MSM

>  <Index>  (539) 
3181

$$$$
ETAM-pdb2v79-A-LYS-78:MSM-pdb2v79-A-MET-74
     RDKit          3D

 20 18  0  0  0  0  0  0  0  0999 V2000
    1.2374    0.8341    0.0000 C   0  0  0  0  0  0  0  0  0  0  0  0
    1.3533    1.2447    0.9115 H   0  0  0  0  0  0  0  0  0  0  0  0
    1.1304    1.5758   -0.6724 H   0  0  0  0  0  0  0  0  0  0  0  0
    2.1368    0.2687   -0.2441 H   0  0  0  0  0  0  0  0  0  0  0  0
    0.0000    0.0000    0.0000 C   0  0  0  0  0  0  0  0  0  0  0  0
    0.0133   -0.6097   -0.8162 H   0  0  0  0  0  0  0  0  0  0  0  0
    0.0127   -0.6102    0.8159 H   0  0  0  0  0  0  0  0  0  0  0  0
   -1.2374    0.7737   -0.0000 N   0  0  0  0  0  4  0  0  0  0  0  0
   -1.8071    0.5160   -0.7869 H   0  0  0  0  0  0  0  0  0  0  0  0
   -1.7542    0.6004    0.8443 H   0  0  0  0  0  0  0  0  0  0  0  0
   -1.0317    1.7549   -0.0574 H   0  0  0  0  0  0  0  0  0  0  0  0
    0.4360   -1.8406    2.8191 C   0  0  0  0  0  0  0  0  0  0  0  0
    1.1214   -1.2038    2.4137 H   0  0  0  0  0  0  0  0  0  0  0  0
    0.2555   -2.5560    2.1162 H   0  0  0  0  0  0  0  0  0  0  0  0
    0.8736   -2.3138    3.6980 H   0  0  0  0  0  0  0  0  0  0  0  0
   -1.0932   -0.9511    3.2280 S   0  0  0  0  0  0  0  0  0  0  0  0
   -0.3978    0.3986    4.1857 C   0  0  0  0  0  0  0  0  0  0  0  0
   -0.6242    0.2739    5.1516 H   0  0  0  0  0  0  0  0  0  0  0  0
    0.5967    0.4084    4.0755 H   0  0  0  0  0  0  0  0  0  0  0  0
   -0.7779    1.2663    3.8644 H   0  0  0  0  0  0  0  0  0  0  0  0
  1  5  1  0
  5  8  1  0
  1  2  1  0
  1  3  1  0
  1  4  1  0
  5  6  1  0
  5  7  1  0
  8  9  1  0
  8 10  1  0
  8 11  1  0
 12 16  1  0
 16 17  1  0
 12 13  1  0
 12 14  1  0
 12 15  1  0
 17 18  1  0
 17 19  1  0
 17 20  1  0
M  CHG  1   8   1
M  END
>  <PDB_ID>  (540) 
pdb2v79

>  <RESIDUE_NAME>  (540) 
LYS   MET

>  <FRAG_NAME>  (540) 
ETAM   MSM

>  <FRAG_ATOM_NUM>  (540) 
fragi: 11  fragj: 9

>  <atom.prop.CHAIN_ID>  (540) 
A A A A A A A A A A A Z Z Z Z Z Z Z Z Z

>  <atom.prop.IS_HEAVY_ATOM>  (540) 
1 0 0 0 1 0 0 1 0 0 0 1 0 0 0 1 1 0 0 0

>  <DIFUSE_FUNC_ATOM>  (540) 
n/a

>  <FINAL_SINGLE_POINT_ENERGY>  (540) 
0

>  <NONCOV_INTER_ENERGY_QM>  (540) 
0

>  <FF_Energy>  (540) 
-0.45

>  <QM_Energy>  (540) 
-11.12

>  <source>  (540) 
ETAM_MSM

>  <Index>  (540) 
3187

$$$$
ETAM-pdb1oqj-A-LYS-158:MSM-pdb1oqj-A-MET-155
     RDKit          3D

 20 18  0  0  0  0  0  0  0  0999 V2000
    1.2481    0.8729   -0.0000 C   0  0  0  0  0  0  0  0  0  0  0  0
    1.2063    1.4845   -0.7832 H   0  0  0  0  0  0  0  0  0  0  0  0
    2.0464    0.2828   -0.0636 H   0  0  0  0  0  0  0  0  0  0  0  0
    1.3186    1.4686    0.9101 H   0  0  0  0  0  0  0  0  0  0  0  0
    0.0000    0.0000    0.0000 C   0  0  0  0  0  0  0  0  0  0  0  0
    0.0155   -0.5865   -0.8167 H   0  0  0  0  0  0  0  0  0  0  0  0
    0.0157   -0.5866    0.8156 H   0  0  0  0  0  0  0  0  0  0  0  0
   -1.2481    0.8060    0.0000 N   0  0  0  0  0  4  0  0  0  0  0  0
   -1.0381    1.7447   -0.2730 H   0  0  0  0  0  0  0  0  0  0  0  0
   -1.9003    0.4090   -0.6462 H   0  0  0  0  0  0  0  0  0  0  0  0
   -1.6443    0.8060    0.9182 H   0  0  0  0  0  0  0  0  0  0  0  0
   -2.8090    4.2061   -1.1435 C   0  0  0  0  0  0  0  0  0  0  0  0
   -3.4209    5.0019   -1.3228 H   0  0  0  0  0  0  0  0  0  0  0  0
   -2.5149    3.8574   -2.0550 H   0  0  0  0  0  0  0  0  0  0  0  0
   -1.9310    4.5542   -0.5993 H   0  0  0  0  0  0  0  0  0  0  0  0
   -3.6779    2.9273   -0.2224 S   0  0  0  0  0  0  0  0  0  0  0  0
   -3.7776    1.6242   -1.4551 C   0  0  0  0  0  0  0  0  0  0  0  0
   -4.1879    0.8086   -1.0452 H   0  0  0  0  0  0  0  0  0  0  0  0
   -4.3422    1.9325   -2.2216 H   0  0  0  0  0  0  0  0  0  0  0  0
   -2.8584    1.4059   -1.7844 H   0  0  0  0  0  0  0  0  0  0  0  0
  1  5  1  0
  5  8  1  0
  1  2  1  0
  1  3  1  0
  1  4  1  0
  5  6  1  0
  5  7  1  0
  8  9  1  0
  8 10  1  0
  8 11  1  0
 12 16  1  0
 16 17  1  0
 12 13  1  0
 12 14  1  0
 12 15  1  0
 17 18  1  0
 17 19  1  0
 17 20  1  0
M  CHG  1   8   1
M  END
>  <PDB_ID>  (541) 
pdb1oqj

>  <RESIDUE_NAME>  (541) 
LYS   MET

>  <FRAG_NAME>  (541) 
ETAM   MSM

>  <FRAG_ATOM_NUM>  (541) 
fragi: 11  fragj: 9

>  <atom.prop.CHAIN_ID>  (541) 
A A A A A A A A A A A Z Z Z Z Z Z Z Z Z

>  <atom.prop.IS_HEAVY_ATOM>  (541) 
1 0 0 0 1 0 0 1 0 0 0 1 0 0 0 1 1 0 0 0

>  <DIFUSE_FUNC_ATOM>  (541) 
n/a

>  <FINAL_SINGLE_POINT_ENERGY>  (541) 
0

>  <NONCOV_INTER_ENERGY_QM>  (541) 
0

>  <FF_Energy>  (541) 
-0.05

>  <QM_Energy>  (541) 
-7.02

>  <source>  (541) 
ETAM_MSM

>  <Index>  (541) 
3189

$$$$
ETAM-pdb2v8q-B-LYS-270:MSM-pdb2v8q-B-MET-251
     RDKit          3D

 20 18  0  0  0  0  0  0  0  0999 V2000
    1.2580    0.8595    0.0000 C   0  0  0  0  0  0  0  0  0  0  0  0
    1.4209    1.1896    0.9170 H   0  0  0  0  0  0  0  0  0  0  0  0
    1.1353    1.6064   -0.6354 H   0  0  0  0  0  0  0  0  0  0  0  0
    2.1212    0.2733   -0.3151 H   0  0  0  0  0  0  0  0  0  0  0  0
    0.0000    0.0000    0.0000 C   0  0  0  0  0  0  0  0  0  0  0  0
    0.0055   -0.5869   -0.8165 H   0  0  0  0  0  0  0  0  0  0  0  0
    0.0051   -0.5872    0.8166 H   0  0  0  0  0  0  0  0  0  0  0  0
   -1.2580    0.8178    0.0000 N   0  0  0  0  0  4  0  0  0  0  0  0
   -1.0936    1.6672   -0.4972 H   0  0  0  0  0  0  0  0  0  0  0  0
   -1.9838    0.2985   -0.4459 H   0  0  0  0  0  0  0  0  0  0  0  0
   -1.5145    1.0195    0.9426 H   0  0  0  0  0  0  0  0  0  0  0  0
    2.4545    5.2749   -3.5796 C   0  0  0  0  0  0  0  0  0  0  0  0
    2.4588    6.2491   -3.7829 H   0  0  0  0  0  0  0  0  0  0  0  0
    2.4539    4.7470   -4.4238 H   0  0  0  0  0  0  0  0  0  0  0  0
    3.3181    5.0129   -2.9684 H   0  0  0  0  0  0  0  0  0  0  0  0
    1.0201    4.8505   -2.5744 S   0  0  0  0  0  0  0  0  0  0  0  0
    1.0479    3.0535   -2.6905 C   0  0  0  0  0  0  0  0  0  0  0  0
    1.7858    2.7725   -3.3031 H   0  0  0  0  0  0  0  0  0  0  0  0
    1.2006    2.6655   -1.7823 H   0  0  0  0  0  0  0  0  0  0  0  0
    0.1725    2.7318   -3.0500 H   0  0  0  0  0  0  0  0  0  0  0  0
  1  5  1  0
  5  8  1  0
  1  2  1  0
  1  3  1  0
  1  4  1  0
  5  6  1  0
  5  7  1  0
  8  9  1  0
  8 10  1  0
  8 11  1  0
 12 16  1  0
 16 17  1  0
 12 13  1  0
 12 14  1  0
 12 15  1  0
 17 18  1  0
 17 19  1  0
 17 20  1  0
M  CHG  1   8   1
M  END
>  <PDB_ID>  (542) 
pdb2v8q

>  <RESIDUE_NAME>  (542) 
LYS   MET

>  <FRAG_NAME>  (542) 
ETAM   MSM

>  <FRAG_ATOM_NUM>  (542) 
fragi: 11  fragj: 9

>  <atom.prop.CHAIN_ID>  (542) 
A A A A A A A A A A A Z Z Z Z Z Z Z Z Z

>  <atom.prop.IS_HEAVY_ATOM>  (542) 
1 0 0 0 1 0 0 1 0 0 0 1 0 0 0 1 1 0 0 0

>  <DIFUSE_FUNC_ATOM>  (542) 
n/a

>  <FINAL_SINGLE_POINT_ENERGY>  (542) 
0

>  <NONCOV_INTER_ENERGY_QM>  (542) 
0

>  <FF_Energy>  (542) 
15.66

>  <QM_Energy>  (542) 
2.23

>  <source>  (542) 
ETAM_MSM

>  <Index>  (542) 
3196

$$$$
ETAM-pdb1org-A-LYS-81:MSM-pdb1org-A-MET-84
     RDKit          3D

 20 18  0  0  0  0  0  0  0  0999 V2000
    1.2580    0.8860   -0.0000 C   0  0  0  0  0  0  0  0  0  0  0  0
    1.0084    1.7860    0.3504 H   0  0  0  0  0  0  0  0  0  0  0  0
    1.5861    0.9647   -0.9382 H   0  0  0  0  0  0  0  0  0  0  0  0
    2.0619    0.4850    0.6171 H   0  0  0  0  0  0  0  0  0  0  0  0
    0.0000    0.0000    0.0000 C   0  0  0  0  0  0  0  0  0  0  0  0
    0.0345   -0.5939   -0.8166 H   0  0  0  0  0  0  0  0  0  0  0  0
    0.0350   -0.5936    0.8165 H   0  0  0  0  0  0  0  0  0  0  0  0
   -1.2580    0.7698   -0.0000 N   0  0  0  0  0  4  0  0  0  0  0  0
   -1.0613    1.7386    0.1604 H   0  0  0  0  0  0  0  0  0  0  0  0
   -1.7164    0.6684   -0.8848 H   0  0  0  0  0  0  0  0  0  0  0  0
   -1.8615    0.4319    0.7249 H   0  0  0  0  0  0  0  0  0  0  0  0
    0.9714   -1.7470   -2.7509 C   0  0  0  0  0  0  0  0  0  0  0  0
    1.5178   -2.5317   -2.4365 H   0  0  0  0  0  0  0  0  0  0  0  0
    0.7308   -1.1855   -1.9503 H   0  0  0  0  0  0  0  0  0  0  0  0
    1.5807   -1.1473   -3.4271 H   0  0  0  0  0  0  0  0  0  0  0  0
   -0.5027   -2.2924   -3.6279 S   0  0  0  0  0  0  0  0  0  0  0  0
   -0.5061   -4.0860   -3.4949 C   0  0  0  0  0  0  0  0  0  0  0  0
   -1.4494   -4.4158   -3.4785 H   0  0  0  0  0  0  0  0  0  0  0  0
   -0.0283   -4.4779   -4.2802 H   0  0  0  0  0  0  0  0  0  0  0  0
   -0.0421   -4.3575   -2.6518 H   0  0  0  0  0  0  0  0  0  0  0  0
  1  5  1  0
  5  8  1  0
  1  2  1  0
  1  3  1  0
  1  4  1  0
  5  6  1  0
  5  7  1  0
  8  9  1  0
  8 10  1  0
  8 11  1  0
 12 16  1  0
 16 17  1  0
 12 13  1  0
 12 14  1  0
 12 15  1  0
 17 18  1  0
 17 19  1  0
 17 20  1  0
M  CHG  1   8   1
M  END
>  <PDB_ID>  (543) 
pdb1org

>  <RESIDUE_NAME>  (543) 
LYS   MET

>  <FRAG_NAME>  (543) 
ETAM   MSM

>  <FRAG_ATOM_NUM>  (543) 
fragi: 11  fragj: 9

>  <atom.prop.CHAIN_ID>  (543) 
A A A A A A A A A A A Z Z Z Z Z Z Z Z Z

>  <atom.prop.IS_HEAVY_ATOM>  (543) 
1 0 0 0 1 0 0 1 0 0 0 1 0 0 0 1 1 0 0 0

>  <DIFUSE_FUNC_ATOM>  (543) 
n/a

>  <FINAL_SINGLE_POINT_ENERGY>  (543) 
0

>  <NONCOV_INTER_ENERGY_QM>  (543) 
0

>  <FF_Energy>  (543) 
43.28

>  <QM_Energy>  (543) 
0.87

>  <source>  (543) 
ETAM_MSM

>  <Index>  (543) 
3197

$$$$
ETAM-pdb2shp-B-LYS-2:MSM-pdb2shp-B-MET-82
     RDKit          3D

 20 18  0  0  0  0  0  0  0  0999 V2000
    1.2772    0.8597    0.0000 C   0  0  0  0  0  0  0  0  0  0  0  0
    1.1611    1.5921    0.6509 H   0  0  0  0  0  0  0  0  0  0  0  0
    1.4235    1.2012   -0.9130 H   0  0  0  0  0  0  0  0  0  0  0  0
    2.1373    0.2588    0.2955 H   0  0  0  0  0  0  0  0  0  0  0  0
    0.0000    0.0000    0.0000 C   0  0  0  0  0  0  0  0  0  0  0  0
    0.0224   -0.6016   -0.8167 H   0  0  0  0  0  0  0  0  0  0  0  0
    0.0222   -0.6019    0.8160 H   0  0  0  0  0  0  0  0  0  0  0  0
   -1.2772    0.7733   -0.0000 N   0  0  0  0  0  4  0  0  0  0  0  0
   -1.3167    1.3732    0.8481 H   0  0  0  0  0  0  0  0  0  0  0  0
   -1.3113    1.3670   -0.8523 H   0  0  0  0  0  0  0  0  0  0  0  0
   -2.0819    0.1155    0.0003 H   0  0  0  0  0  0  0  0  0  0  0  0
   -1.1259    4.3145    2.8753 C   0  0  0  0  0  0  0  0  0  0  0  0
   -1.4606    5.2443    3.1511 H   0  0  0  0  0  0  0  0  0  0  0  0
   -0.4469    4.0443    3.5946 H   0  0  0  0  0  0  0  0  0  0  0  0
   -1.9659    3.6213    2.9193 H   0  0  0  0  0  0  0  0  0  0  0  0
   -0.3792    4.3496    1.2640 S   0  0  0  0  0  0  0  0  0  0  0  0
   -1.2682    5.6793    0.4849 C   0  0  0  0  0  0  0  0  0  0  0  0
   -2.2141    5.3983    0.3029 H   0  0  0  0  0  0  0  0  0  0  0  0
   -1.2759    6.4835    1.0846 H   0  0  0  0  0  0  0  0  0  0  0  0
   -0.8276    5.9231   -0.3822 H   0  0  0  0  0  0  0  0  0  0  0  0
  1  5  1  0
  5  8  1  0
  1  2  1  0
  1  3  1  0
  1  4  1  0
  5  6  1  0
  5  7  1  0
  8  9  1  0
  8 10  1  0
  8 11  1  0
 12 16  1  0
 16 17  1  0
 12 13  1  0
 12 14  1  0
 12 15  1  0
 17 18  1  0
 17 19  1  0
 17 20  1  0
M  CHG  1   8   1
M  END
>  <PDB_ID>  (544) 
pdb2shp

>  <RESIDUE_NAME>  (544) 
LYS   MET

>  <FRAG_NAME>  (544) 
ETAM   MSM

>  <FRAG_ATOM_NUM>  (544) 
fragi: 11  fragj: 9

>  <atom.prop.CHAIN_ID>  (544) 
A A A A A A A A A A A Z Z Z Z Z Z Z Z Z

>  <atom.prop.IS_HEAVY_ATOM>  (544) 
1 0 0 0 1 0 0 1 0 0 0 1 0 0 0 1 1 0 0 0

>  <DIFUSE_FUNC_ATOM>  (544) 
n/a

>  <FINAL_SINGLE_POINT_ENERGY>  (544) 
0

>  <NONCOV_INTER_ENERGY_QM>  (544) 
0

>  <FF_Energy>  (544) 
-4.4

>  <QM_Energy>  (544) 
-10.85

>  <source>  (544) 
ETAM_MSM

>  <Index>  (544) 
3198

$$$$
ETAM-pdb2vdu-B-LYS-315:MSM-pdb2vdu-B-MET-337
     RDKit          3D

 20 18  0  0  0  0  0  0  0  0999 V2000
    1.2627    0.8600   -0.0000 C   0  0  0  0  0  0  0  0  0  0  0  0
    1.1326    1.6088   -0.6460 H   0  0  0  0  0  0  0  0  0  0  0  0
    2.0286    0.2909   -0.2874 H   0  0  0  0  0  0  0  0  0  0  0  0
    1.4771    1.2749    0.9849 H   0  0  0  0  0  0  0  0  0  0  0  0
    0.0000    0.0000    0.0000 C   0  0  0  0  0  0  0  0  0  0  0  0
    0.0073   -0.5880   -0.8157 H   0  0  0  0  0  0  0  0  0  0  0  0
    0.0071   -0.5883    0.8164 H   0  0  0  0  0  0  0  0  0  0  0  0
   -1.2627    0.8136   -0.0000 N   0  0  0  0  0  4  0  0  0  0  0  0
   -1.0607    1.7260    0.3486 H   0  0  0  0  0  0  0  0  0  0  0  0
   -1.6101    0.8744   -0.9333 H   0  0  0  0  0  0  0  0  0  0  0  0
   -1.9358    0.3677    0.5844 H   0  0  0  0  0  0  0  0  0  0  0  0
    6.4809   -1.3802    1.7021 C   0  0  0  0  0  0  0  0  0  0  0  0
    6.8363   -1.6909    2.6203 H   0  0  0  0  0  0  0  0  0  0  0  0
    6.8793   -0.4362    1.5762 H   0  0  0  0  0  0  0  0  0  0  0  0
    6.9097   -2.0305    0.9396 H   0  0  0  0  0  0  0  0  0  0  0  0
    4.6702   -1.3161    1.7055 S   0  0  0  0  0  0  0  0  0  0  0  0
    4.3918   -0.5399    0.1089 C   0  0  0  0  0  0  0  0  0  0  0  0
    4.7390   -1.1358   -0.6159 H   0  0  0  0  0  0  0  0  0  0  0  0
    3.4122   -0.3908   -0.0222 H   0  0  0  0  0  0  0  0  0  0  0  0
    4.8700    0.3381    0.0770 H   0  0  0  0  0  0  0  0  0  0  0  0
  1  5  1  0
  5  8  1  0
  1  2  1  0
  1  3  1  0
  1  4  1  0
  5  6  1  0
  5  7  1  0
  8  9  1  0
  8 10  1  0
  8 11  1  0
 12 16  1  0
 16 17  1  0
 12 13  1  0
 12 14  1  0
 12 15  1  0
 17 18  1  0
 17 19  1  0
 17 20  1  0
M  CHG  1   8   1
M  END
>  <PDB_ID>  (545) 
pdb2vdu

>  <RESIDUE_NAME>  (545) 
LYS   MET

>  <FRAG_NAME>  (545) 
ETAM   MSM

>  <FRAG_ATOM_NUM>  (545) 
fragi: 11  fragj: 9

>  <atom.prop.CHAIN_ID>  (545) 
A A A A A A A A A A A Z Z Z Z Z Z Z Z Z

>  <atom.prop.IS_HEAVY_ATOM>  (545) 
1 0 0 0 1 0 0 1 0 0 0 1 0 0 0 1 1 0 0 0

>  <DIFUSE_FUNC_ATOM>  (545) 
n/a

>  <FINAL_SINGLE_POINT_ENERGY>  (545) 
0

>  <NONCOV_INTER_ENERGY_QM>  (545) 
0

>  <FF_Energy>  (545) 
15.17

>  <QM_Energy>  (545) 
2.4

>  <source>  (545) 
ETAM_MSM

>  <Index>  (545) 
3215

$$$$
ETAM-pdb2vdu-D-LYS-315:MSM-pdb2vdu-D-MET-337
     RDKit          3D

 20 18  0  0  0  0  0  0  0  0999 V2000
    1.2608    0.8547   -0.0000 C   0  0  0  0  0  0  0  0  0  0  0  0
    1.1419    1.5968   -0.6575 H   0  0  0  0  0  0  0  0  0  0  0  0
    2.0324    0.2833   -0.2714 H   0  0  0  0  0  0  0  0  0  0  0  0
    1.4735    1.2868    0.9779 H   0  0  0  0  0  0  0  0  0  0  0  0
    0.0000    0.0000    0.0000 C   0  0  0  0  0  0  0  0  0  0  0  0
    0.0118   -0.5950   -0.8167 H   0  0  0  0  0  0  0  0  0  0  0  0
    0.0117   -0.5949    0.8166 H   0  0  0  0  0  0  0  0  0  0  0  0
   -1.2608    0.7971    0.0000 N   0  0  0  0  0  4  0  0  0  0  0  0
   -1.2294    1.4639   -0.7433 H   0  0  0  0  0  0  0  0  0  0  0  0
   -2.0390    0.1841   -0.1314 H   0  0  0  0  0  0  0  0  0  0  0  0
   -1.3509    1.2718    0.8744 H   0  0  0  0  0  0  0  0  0  0  0  0
    6.4895   -1.3941    1.6724 C   0  0  0  0  0  0  0  0  0  0  0  0
    6.8706   -1.6399    2.6006 H   0  0  0  0  0  0  0  0  0  0  0  0
    6.8682   -0.4527    1.4800 H   0  0  0  0  0  0  0  0  0  0  0  0
    6.8951   -2.0887    0.9367 H   0  0  0  0  0  0  0  0  0  0  0  0
    4.7187   -1.3738    1.6974 S   0  0  0  0  0  0  0  0  0  0  0  0
    4.3522   -0.5929    0.1281 C   0  0  0  0  0  0  0  0  0  0  0  0
    3.3782   -0.6947   -0.0781 H   0  0  0  0  0  0  0  0  0  0  0  0
    4.5813    0.3807    0.1761 H   0  0  0  0  0  0  0  0  0  0  0  0
    4.8911   -1.0249   -0.5965 H   0  0  0  0  0  0  0  0  0  0  0  0
  1  5  1  0
  5  8  1  0
  1  2  1  0
  1  3  1  0
  1  4  1  0
  5  6  1  0
  5  7  1  0
  8  9  1  0
  8 10  1  0
  8 11  1  0
 12 16  1  0
 16 17  1  0
 12 13  1  0
 12 14  1  0
 12 15  1  0
 17 18  1  0
 17 19  1  0
 17 20  1  0
M  CHG  1   8   1
M  END
>  <PDB_ID>  (546) 
pdb2vdu

>  <RESIDUE_NAME>  (546) 
LYS   MET

>  <FRAG_NAME>  (546) 
ETAM   MSM

>  <FRAG_ATOM_NUM>  (546) 
fragi: 11  fragj: 9

>  <atom.prop.CHAIN_ID>  (546) 
A A A A A A A A A A A Z Z Z Z Z Z Z Z Z

>  <atom.prop.IS_HEAVY_ATOM>  (546) 
1 0 0 0 1 0 0 1 0 0 0 1 0 0 0 1 1 0 0 0

>  <DIFUSE_FUNC_ATOM>  (546) 
n/a

>  <FINAL_SINGLE_POINT_ENERGY>  (546) 
0

>  <NONCOV_INTER_ENERGY_QM>  (546) 
0

>  <FF_Energy>  (546) 
6.59

>  <QM_Energy>  (546) 
1.24

>  <source>  (546) 
ETAM_MSM

>  <Index>  (546) 
3216

$$$$
ETAM-pdb1ow6-B-LYS-988:MSM-pdb1ow6-B-MET-985
     RDKit          3D

 20 18  0  0  0  0  0  0  0  0999 V2000
    1.2374    0.8932   -0.0000 C   0  0  0  0  0  0  0  0  0  0  0  0
    2.0220    0.3480    0.3066 H   0  0  0  0  0  0  0  0  0  0  0  0
    1.0876    1.6431    0.6503 H   0  0  0  0  0  0  0  0  0  0  0  0
    1.4737    1.3216   -0.9740 H   0  0  0  0  0  0  0  0  0  0  0  0
    0.0000    0.0000    0.0000 C   0  0  0  0  0  0  0  0  0  0  0  0
    0.0086   -0.5668   -0.8166 H   0  0  0  0  0  0  0  0  0  0  0  0
    0.0081   -0.5660    0.8164 H   0  0  0  0  0  0  0  0  0  0  0  0
   -1.2374    0.8451    0.0000 N   0  0  0  0  0  4  0  0  0  0  0  0
   -1.8178    0.5748   -0.7656 H   0  0  0  0  0  0  0  0  0  0  0  0
   -1.7261    0.7094    0.8599 H   0  0  0  0  0  0  0  0  0  0  0  0
   -0.9780    1.8045   -0.0941 H   0  0  0  0  0  0  0  0  0  0  0  0
    4.9656   -3.1643    0.5454 C   0  0  0  0  0  0  0  0  0  0  0  0
    5.4497   -4.0024    0.9546 H   0  0  0  0  0  0  0  0  0  0  0  0
    5.3935   -2.3765    1.0929 H   0  0  0  0  0  0  0  0  0  0  0  0
    5.3003   -3.0656   -0.4872 H   0  0  0  0  0  0  0  0  0  0  0  0
    3.1715   -3.2541    0.8745 S   0  0  0  0  0  0  0  0  0  0  0  0
    2.5261   -1.6408    1.0125 C   0  0  0  0  0  0  0  0  0  0  0  0
    2.5139   -1.1802    0.1144 H   0  0  0  0  0  0  0  0  0  0  0  0
    1.5811   -1.6608    1.3662 H   0  0  0  0  0  0  0  0  0  0  0  0
    3.0838   -1.0823    1.6419 H   0  0  0  0  0  0  0  0  0  0  0  0
  1  5  1  0
  5  8  1  0
  1  2  1  0
  1  3  1  0
  1  4  1  0
  5  6  1  0
  5  7  1  0
  8  9  1  0
  8 10  1  0
  8 11  1  0
 12 16  1  0
 16 17  1  0
 12 13  1  0
 12 14  1  0
 12 15  1  0
 17 18  1  0
 17 19  1  0
 17 20  1  0
M  CHG  1   8   1
M  END
>  <PDB_ID>  (547) 
pdb1ow6

>  <RESIDUE_NAME>  (547) 
LYS   MET

>  <FRAG_NAME>  (547) 
ETAM   MSM

>  <FRAG_ATOM_NUM>  (547) 
fragi: 11  fragj: 9

>  <atom.prop.CHAIN_ID>  (547) 
A A A A A A A A A A A Z Z Z Z Z Z Z Z Z

>  <atom.prop.IS_HEAVY_ATOM>  (547) 
1 0 0 0 1 0 0 1 0 0 0 1 0 0 0 1 1 0 0 0

>  <DIFUSE_FUNC_ATOM>  (547) 
n/a

>  <FINAL_SINGLE_POINT_ENERGY>  (547) 
0

>  <NONCOV_INTER_ENERGY_QM>  (547) 
0

>  <FF_Energy>  (547) 
22.51

>  <QM_Energy>  (547) 
5.95

>  <source>  (547) 
ETAM_MSM

>  <Index>  (547) 
3217

$$$$
ETAM-pdb2rdx-B-LYS-239:MSM-pdb2rdx-B-MET-191
     RDKit          3D

 20 18  0  0  0  0  0  0  0  0999 V2000
    1.2598    0.8496    0.0000 C   0  0  0  0  0  0  0  0  0  0  0  0
    1.4738    1.1006    0.9442 H   0  0  0  0  0  0  0  0  0  0  0  0
    1.0842    1.6778   -0.5322 H   0  0  0  0  0  0  0  0  0  0  0  0
    2.1190    0.3331   -0.4279 H   0  0  0  0  0  0  0  0  0  0  0  0
    0.0000    0.0000    0.0000 C   0  0  0  0  0  0  0  0  0  0  0  0
   -0.0010   -0.5877   -0.8158 H   0  0  0  0  0  0  0  0  0  0  0  0
   -0.0017   -0.5884    0.8168 H   0  0  0  0  0  0  0  0  0  0  0  0
   -1.2598    0.8251   -0.0000 N   0  0  0  0  0  4  0  0  0  0  0  0
   -2.0271    0.2430    0.2589 H   0  0  0  0  0  0  0  0  0  0  0  0
   -1.1583    1.5694    0.6560 H   0  0  0  0  0  0  0  0  0  0  0  0
   -1.4042    1.1931   -0.9154 H   0  0  0  0  0  0  0  0  0  0  0  0
   -1.2329    5.4865   -0.1683 C   0  0  0  0  0  0  0  0  0  0  0  0
   -1.8649    6.2644    0.0135 H   0  0  0  0  0  0  0  0  0  0  0  0
   -1.6113    4.9886   -0.9733 H   0  0  0  0  0  0  0  0  0  0  0  0
   -0.2497    5.8812   -0.4246 H   0  0  0  0  0  0  0  0  0  0  0  0
   -1.1463    4.3910    1.2706 S   0  0  0  0  0  0  0  0  0  0  0  0
   -1.4089    5.6401    2.5237 C   0  0  0  0  0  0  0  0  0  0  0  0
   -0.6840    5.5842    3.2124 H   0  0  0  0  0  0  0  0  0  0  0  0
   -1.3954    6.5489    2.1021 H   0  0  0  0  0  0  0  0  0  0  0  0
   -2.2958    5.4937    2.9646 H   0  0  0  0  0  0  0  0  0  0  0  0
  1  5  1  0
  5  8  1  0
  1  2  1  0
  1  3  1  0
  1  4  1  0
  5  6  1  0
  5  7  1  0
  8  9  1  0
  8 10  1  0
  8 11  1  0
 12 16  1  0
 16 17  1  0
 12 13  1  0
 12 14  1  0
 12 15  1  0
 17 18  1  0
 17 19  1  0
 17 20  1  0
M  CHG  1   8   1
M  END
>  <PDB_ID>  (548) 
pdb2rdx

>  <RESIDUE_NAME>  (548) 
LYS   MET

>  <FRAG_NAME>  (548) 
ETAM   MSM

>  <FRAG_ATOM_NUM>  (548) 
fragi: 11  fragj: 9

>  <atom.prop.CHAIN_ID>  (548) 
A A A A A A A A A A A Z Z Z Z Z Z Z Z Z

>  <atom.prop.IS_HEAVY_ATOM>  (548) 
1 0 0 0 1 0 0 1 0 0 0 1 0 0 0 1 1 0 0 0

>  <DIFUSE_FUNC_ATOM>  (548) 
n/a

>  <FINAL_SINGLE_POINT_ENERGY>  (548) 
0

>  <NONCOV_INTER_ENERGY_QM>  (548) 
0

>  <FF_Energy>  (548) 
-5.03

>  <QM_Energy>  (548) 
-11.05

>  <source>  (548) 
ETAM_MSM

>  <Index>  (548) 
3219

$$$$
ETAM-pdb2vig-B-LYS-335:MSM-pdb2vig-B-MET-270
     RDKit          3D

 20 18  0  0  0  0  0  0  0  0999 V2000
    1.2600    0.8656    0.0000 C   0  0  0  0  0  0  0  0  0  0  0  0
    1.3017    1.3517   -0.8612 H   0  0  0  0  0  0  0  0  0  0  0  0
    2.0429    0.2722    0.1148 H   0  0  0  0  0  0  0  0  0  0  0  0
    1.2190    1.5808    0.8215 H   0  0  0  0  0  0  0  0  0  0  0  0
    0.0000    0.0000    0.0000 C   0  0  0  0  0  0  0  0  0  0  0  0
    0.0223   -0.5974   -0.8163 H   0  0  0  0  0  0  0  0  0  0  0  0
    0.0227   -0.5972    0.8166 H   0  0  0  0  0  0  0  0  0  0  0  0
   -1.2600    0.7801   -0.0000 N   0  0  0  0  0  4  0  0  0  0  0  0
   -1.4112    1.1708    0.9083 H   0  0  0  0  0  0  0  0  0  0  0  0
   -1.1969    1.5183   -0.6734 H   0  0  0  0  0  0  0  0  0  0  0  0
   -2.0247    0.1799   -0.2355 H   0  0  0  0  0  0  0  0  0  0  0  0
    0.8244   -0.4657   -3.6401 C   0  0  0  0  0  0  0  0  0  0  0  0
    1.1804   -0.0471   -2.7834 H   0  0  0  0  0  0  0  0  0  0  0  0
    0.8760    0.2544   -4.3584 H   0  0  0  0  0  0  0  0  0  0  0  0
    1.4696   -1.2973   -3.9231 H   0  0  0  0  0  0  0  0  0  0  0  0
   -0.8886   -1.0123   -3.4142 S   0  0  0  0  0  0  0  0  0  0  0  0
   -1.5642   -0.9882   -5.0958 C   0  0  0  0  0  0  0  0  0  0  0  0
   -1.0904   -1.6723   -5.6461 H   0  0  0  0  0  0  0  0  0  0  0  0
   -2.5384   -1.1972   -5.0576 H   0  0  0  0  0  0  0  0  0  0  0  0
   -1.4264   -0.0815   -5.4891 H   0  0  0  0  0  0  0  0  0  0  0  0
  1  5  1  0
  5  8  1  0
  1  2  1  0
  1  3  1  0
  1  4  1  0
  5  6  1  0
  5  7  1  0
  8  9  1  0
  8 10  1  0
  8 11  1  0
 12 16  1  0
 16 17  1  0
 12 13  1  0
 12 14  1  0
 12 15  1  0
 17 18  1  0
 17 19  1  0
 17 20  1  0
M  CHG  1   8   1
M  END
>  <PDB_ID>  (549) 
pdb2vig

>  <RESIDUE_NAME>  (549) 
LYS   MET

>  <FRAG_NAME>  (549) 
ETAM   MSM

>  <FRAG_ATOM_NUM>  (549) 
fragi: 11  fragj: 9

>  <atom.prop.CHAIN_ID>  (549) 
A A A A A A A A A A A Z Z Z Z Z Z Z Z Z

>  <atom.prop.IS_HEAVY_ATOM>  (549) 
1 0 0 0 1 0 0 1 0 0 0 1 0 0 0 1 1 0 0 0

>  <DIFUSE_FUNC_ATOM>  (549) 
n/a

>  <FINAL_SINGLE_POINT_ENERGY>  (549) 
0

>  <NONCOV_INTER_ENERGY_QM>  (549) 
0

>  <FF_Energy>  (549) 
-3.94

>  <QM_Energy>  (549) 
-9.8

>  <source>  (549) 
ETAM_MSM

>  <Index>  (549) 
3223

$$$$
ETAM-pdb2vig-D-LYS-335:MSM-pdb2vig-D-MET-270
     RDKit          3D

 20 18  0  0  0  0  0  0  0  0999 V2000
    1.2554    0.8753   -0.0000 C   0  0  0  0  0  0  0  0  0  0  0  0
    1.3000    1.3424    0.8575 H   0  0  0  0  0  0  0  0  0  0  0  0
    1.2049    1.4785   -0.7672 H   0  0  0  0  0  0  0  0  0  0  0  0
    2.1047    0.2002   -0.1058 H   0  0  0  0  0  0  0  0  0  0  0  0
    0.0000    0.0000    0.0000 C   0  0  0  0  0  0  0  0  0  0  0  0
    0.0307   -0.5975   -0.8160 H   0  0  0  0  0  0  0  0  0  0  0  0
    0.0305   -0.5978    0.8167 H   0  0  0  0  0  0  0  0  0  0  0  0
   -1.2554    0.7699    0.0000 N   0  0  0  0  0  4  0  0  0  0  0  0
   -1.5211    0.9847    0.9420 H   0  0  0  0  0  0  0  0  0  0  0  0
   -1.1296    1.6240   -0.5093 H   0  0  0  0  0  0  0  0  0  0  0  0
   -1.9826    0.2335   -0.4325 H   0  0  0  0  0  0  0  0  0  0  0  0
   -1.2649    3.1221    2.2624 C   0  0  0  0  0  0  0  0  0  0  0  0
   -0.4200    2.7416    1.8324 H   0  0  0  0  0  0  0  0  0  0  0  0
   -1.0070    3.3696    3.2198 H   0  0  0  0  0  0  0  0  0  0  0  0
   -1.5521    4.0287    1.7298 H   0  0  0  0  0  0  0  0  0  0  0  0
   -2.5907    1.8653    2.2694 S   0  0  0  0  0  0  0  0  0  0  0  0
   -3.8761    2.7139    3.1977 C   0  0  0  0  0  0  0  0  0  0  0  0
   -4.0595    3.6011    2.7750 H   0  0  0  0  0  0  0  0  0  0  0  0
   -4.7097    2.1617    3.1923 H   0  0  0  0  0  0  0  0  0  0  0  0
   -3.5715    2.8485    4.1405 H   0  0  0  0  0  0  0  0  0  0  0  0
  1  5  1  0
  5  8  1  0
  1  2  1  0
  1  3  1  0
  1  4  1  0
  5  6  1  0
  5  7  1  0
  8  9  1  0
  8 10  1  0
  8 11  1  0
 12 16  1  0
 16 17  1  0
 12 13  1  0
 12 14  1  0
 12 15  1  0
 17 18  1  0
 17 19  1  0
 17 20  1  0
M  CHG  1   8   1
M  END
>  <PDB_ID>  (550) 
pdb2vig

>  <RESIDUE_NAME>  (550) 
LYS   MET

>  <FRAG_NAME>  (550) 
ETAM   MSM

>  <FRAG_ATOM_NUM>  (550) 
fragi: 11  fragj: 9

>  <atom.prop.CHAIN_ID>  (550) 
A A A A A A A A A A A Z Z Z Z Z Z Z Z Z

>  <atom.prop.IS_HEAVY_ATOM>  (550) 
1 0 0 0 1 0 0 1 0 0 0 1 0 0 0 1 1 0 0 0

>  <DIFUSE_FUNC_ATOM>  (550) 
n/a

>  <FINAL_SINGLE_POINT_ENERGY>  (550) 
0

>  <NONCOV_INTER_ENERGY_QM>  (550) 
0

>  <FF_Energy>  (550) 
0.57

>  <QM_Energy>  (550) 
-7.49

>  <source>  (550) 
ETAM_MSM

>  <Index>  (550) 
3225

$$$$
ETAM-pdb2vig-E-LYS-335:MSM-pdb2vig-E-MET-270
     RDKit          3D

 20 18  0  0  0  0  0  0  0  0999 V2000
    1.2503    0.8795    0.0000 C   0  0  0  0  0  0  0  0  0  0  0  0
    1.1865    1.5121   -0.7622 H   0  0  0  0  0  0  0  0  0  0  0  0
    2.0443    0.2923   -0.0969 H   0  0  0  0  0  0  0  0  0  0  0  0
    1.3303    1.4438    0.9291 H   0  0  0  0  0  0  0  0  0  0  0  0
    0.0000    0.0000    0.0000 C   0  0  0  0  0  0  0  0  0  0  0  0
    0.0326   -0.5955   -0.8164 H   0  0  0  0  0  0  0  0  0  0  0  0
    0.0313   -0.5956    0.8165 H   0  0  0  0  0  0  0  0  0  0  0  0
   -1.2503    0.7710   -0.0000 N   0  0  0  0  0  4  0  0  0  0  0  0
   -1.1050    1.6569    0.4468 H   0  0  0  0  0  0  0  0  0  0  0  0
   -1.5551    0.9265   -0.9427 H   0  0  0  0  0  0  0  0  0  0  0  0
   -1.9619    0.2668    0.4960 H   0  0  0  0  0  0  0  0  0  0  0  0
    0.3661    0.0465   -3.8641 C   0  0  0  0  0  0  0  0  0  0  0  0
    0.7955    0.5559   -3.1056 H   0  0  0  0  0  0  0  0  0  0  0  0
    0.3648    0.6428   -4.6786 H   0  0  0  0  0  0  0  0  0  0  0  0
    0.9595   -0.8431   -4.0754 H   0  0  0  0  0  0  0  0  0  0  0  0
   -1.3035   -0.4563   -3.4350 S   0  0  0  0  0  0  0  0  0  0  0  0
   -2.1273   -0.4079   -5.0369 C   0  0  0  0  0  0  0  0  0  0  0  0
   -1.7604   -1.1325   -5.6196 H   0  0  0  0  0  0  0  0  0  0  0  0
   -3.1084   -0.5460   -4.9080 H   0  0  0  0  0  0  0  0  0  0  0  0
   -1.9666    0.4808   -5.4646 H   0  0  0  0  0  0  0  0  0  0  0  0
  1  5  1  0
  5  8  1  0
  1  2  1  0
  1  3  1  0
  1  4  1  0
  5  6  1  0
  5  7  1  0
  8  9  1  0
  8 10  1  0
  8 11  1  0
 12 16  1  0
 16 17  1  0
 12 13  1  0
 12 14  1  0
 12 15  1  0
 17 18  1  0
 17 19  1  0
 17 20  1  0
M  CHG  1   8   1
M  END
>  <PDB_ID>  (551) 
pdb2vig

>  <RESIDUE_NAME>  (551) 
LYS   MET

>  <FRAG_NAME>  (551) 
ETAM   MSM

>  <FRAG_ATOM_NUM>  (551) 
fragi: 11  fragj: 9

>  <atom.prop.CHAIN_ID>  (551) 
A A A A A A A A A A A Z Z Z Z Z Z Z Z Z

>  <atom.prop.IS_HEAVY_ATOM>  (551) 
1 0 0 0 1 0 0 1 0 0 0 1 0 0 0 1 1 0 0 0

>  <DIFUSE_FUNC_ATOM>  (551) 
n/a

>  <FINAL_SINGLE_POINT_ENERGY>  (551) 
0

>  <NONCOV_INTER_ENERGY_QM>  (551) 
0

>  <FF_Energy>  (551) 
-5.22

>  <QM_Energy>  (551) 
-13.03

>  <source>  (551) 
ETAM_MSM

>  <Index>  (551) 
3226

$$$$
ETAM-pdb2vkj-A-LYS-32:MSM-pdb2vkj-A-MET-36
     RDKit          3D

 20 18  0  0  0  0  0  0  0  0999 V2000
    1.2709    0.8514   -0.0000 C   0  0  0  0  0  0  0  0  0  0  0  0
    1.2474    1.4509   -0.7951 H   0  0  0  0  0  0  0  0  0  0  0  0
    2.0562    0.2415   -0.0552 H   0  0  0  0  0  0  0  0  0  0  0  0
    1.3579    1.4614    0.8992 H   0  0  0  0  0  0  0  0  0  0  0  0
    0.0000    0.0000    0.0000 C   0  0  0  0  0  0  0  0  0  0  0  0
    0.0100   -0.5963   -0.8164 H   0  0  0  0  0  0  0  0  0  0  0  0
    0.0091   -0.5965    0.8164 H   0  0  0  0  0  0  0  0  0  0  0  0
   -1.2709    0.7985   -0.0000 N   0  0  0  0  0  4  0  0  0  0  0  0
   -1.2126    1.5028   -0.7038 H   0  0  0  0  0  0  0  0  0  0  0  0
   -2.0380    0.1894   -0.1907 H   0  0  0  0  0  0  0  0  0  0  0  0
   -1.3888    1.2228    0.8951 H   0  0  0  0  0  0  0  0  0  0  0  0
   -1.3308    1.3631    4.5599 C   0  0  0  0  0  0  0  0  0  0  0  0
   -2.3162    1.5666    4.4710 H   0  0  0  0  0  0  0  0  0  0  0  0
   -0.8198    2.1167    4.1226 H   0  0  0  0  0  0  0  0  0  0  0  0
   -1.0694    1.3205    5.6173 H   0  0  0  0  0  0  0  0  0  0  0  0
   -0.9277   -0.2034    3.8161 S   0  0  0  0  0  0  0  0  0  0  0  0
   -2.3535   -1.1420    4.2809 C   0  0  0  0  0  0  0  0  0  0  0  0
   -2.2625   -2.0911    3.9634 H   0  0  0  0  0  0  0  0  0  0  0  0
   -2.4559   -1.1450    5.2807 H   0  0  0  0  0  0  0  0  0  0  0  0
   -3.1800   -0.7425    3.8724 H   0  0  0  0  0  0  0  0  0  0  0  0
  1  5  1  0
  5  8  1  0
  1  2  1  0
  1  3  1  0
  1  4  1  0
  5  6  1  0
  5  7  1  0
  8  9  1  0
  8 10  1  0
  8 11  1  0
 12 16  1  0
 16 17  1  0
 12 13  1  0
 12 14  1  0
 12 15  1  0
 17 18  1  0
 17 19  1  0
 17 20  1  0
M  CHG  1   8   1
M  END
>  <PDB_ID>  (552) 
pdb2vkj

>  <RESIDUE_NAME>  (552) 
LYS   MET

>  <FRAG_NAME>  (552) 
ETAM   MSM

>  <FRAG_ATOM_NUM>  (552) 
fragi: 11  fragj: 9

>  <atom.prop.CHAIN_ID>  (552) 
A A A A A A A A A A A Z Z Z Z Z Z Z Z Z

>  <atom.prop.IS_HEAVY_ATOM>  (552) 
1 0 0 0 1 0 0 1 0 0 0 1 0 0 0 1 1 0 0 0

>  <DIFUSE_FUNC_ATOM>  (552) 
n/a

>  <FINAL_SINGLE_POINT_ENERGY>  (552) 
0

>  <NONCOV_INTER_ENERGY_QM>  (552) 
0

>  <FF_Energy>  (552) 
-4.3

>  <QM_Energy>  (552) 
-10.6

>  <source>  (552) 
ETAM_MSM

>  <Index>  (552) 
3232

$$$$
ETAM-pdb1p3j-A-LYS-117:MSM-pdb1p3j-A-MET-176
     RDKit          3D

 20 18  0  0  0  0  0  0  0  0999 V2000
    1.2488    0.8690    0.0000 C   0  0  0  0  0  0  0  0  0  0  0  0
    1.2476    1.4269   -0.8247 H   0  0  0  0  0  0  0  0  0  0  0  0
    2.0481    0.2759    0.0122 H   0  0  0  0  0  0  0  0  0  0  0  0
    1.2854    1.5269    0.8683 H   0  0  0  0  0  0  0  0  0  0  0  0
    0.0000    0.0000    0.0000 C   0  0  0  0  0  0  0  0  0  0  0  0
    0.0134   -0.5869   -0.8165 H   0  0  0  0  0  0  0  0  0  0  0  0
    0.0131   -0.5872    0.8161 H   0  0  0  0  0  0  0  0  0  0  0  0
   -1.2488    0.8081    0.0000 N   0  0  0  0  0  4  0  0  0  0  0  0
   -2.0162    0.2336    0.2855 H   0  0  0  0  0  0  0  0  0  0  0  0
   -1.1492    1.5729    0.6360 H   0  0  0  0  0  0  0  0  0  0  0  0
   -1.4172    1.1583   -0.9209 H   0  0  0  0  0  0  0  0  0  0  0  0
   -0.2908    4.4590   -3.5920 C   0  0  0  0  0  0  0  0  0  0  0  0
    0.2674    5.2987   -3.4137 H   0  0  0  0  0  0  0  0  0  0  0  0
   -1.1568    4.5836   -3.0601 H   0  0  0  0  0  0  0  0  0  0  0  0
   -0.5337    4.4193   -4.6539 H   0  0  0  0  0  0  0  0  0  0  0  0
    0.5871    2.9834   -3.0406 S   0  0  0  0  0  0  0  0  0  0  0  0
   -0.7824    1.8404   -2.8329 C   0  0  0  0  0  0  0  0  0  0  0  0
   -0.5724    0.9808   -3.2995 H   0  0  0  0  0  0  0  0  0  0  0  0
   -0.9257    1.6647   -1.8585 H   0  0  0  0  0  0  0  0  0  0  0  0
   -1.6119    2.2397   -3.2253 H   0  0  0  0  0  0  0  0  0  0  0  0
  1  5  1  0
  5  8  1  0
  1  2  1  0
  1  3  1  0
  1  4  1  0
  5  6  1  0
  5  7  1  0
  8  9  1  0
  8 10  1  0
  8 11  1  0
 12 16  1  0
 16 17  1  0
 12 13  1  0
 12 14  1  0
 12 15  1  0
 17 18  1  0
 17 19  1  0
 17 20  1  0
M  CHG  1   8   1
M  END
>  <PDB_ID>  (553) 
pdb1p3j

>  <RESIDUE_NAME>  (553) 
LYS   MET

>  <FRAG_NAME>  (553) 
ETAM   MSM

>  <FRAG_ATOM_NUM>  (553) 
fragi: 11  fragj: 9

>  <atom.prop.CHAIN_ID>  (553) 
A A A A A A A A A A A Z Z Z Z Z Z Z Z Z

>  <atom.prop.IS_HEAVY_ATOM>  (553) 
1 0 0 0 1 0 0 1 0 0 0 1 0 0 0 1 1 0 0 0

>  <DIFUSE_FUNC_ATOM>  (553) 
n/a

>  <FINAL_SINGLE_POINT_ENERGY>  (553) 
0

>  <NONCOV_INTER_ENERGY_QM>  (553) 
0

>  <FF_Energy>  (553) 
14.04

>  <QM_Energy>  (553) 
7.06

>  <source>  (553) 
ETAM_MSM

>  <Index>  (553) 
3242

$$$$
ETAM-pdb1p5h-A-LYS-137:MSM-pdb1p5h-B-MET-288
     RDKit          3D

 20 18  0  0  0  0  0  0  0  0999 V2000
    1.3072    0.8225   -0.0000 C   0  0  0  0  0  0  0  0  0  0  0  0
    1.4492    1.1831    0.9091 H   0  0  0  0  0  0  0  0  0  0  0  0
    1.2191    1.5475   -0.6662 H   0  0  0  0  0  0  0  0  0  0  0  0
    2.1625    0.2021   -0.2676 H   0  0  0  0  0  0  0  0  0  0  0  0
    0.0000    0.0000    0.0000 C   0  0  0  0  0  0  0  0  0  0  0  0
    0.0079   -0.6142   -0.8162 H   0  0  0  0  0  0  0  0  0  0  0  0
    0.0076   -0.6149    0.8163 H   0  0  0  0  0  0  0  0  0  0  0  0
   -1.3072    0.7718   -0.0000 N   0  0  0  0  0  4  0  0  0  0  0  0
   -1.9571    0.2939   -0.5824 H   0  0  0  0  0  0  0  0  0  0  0  0
   -1.6474    0.8181    0.9331 H   0  0  0  0  0  0  0  0  0  0  0  0
   -1.1346    1.6863   -0.3507 H   0  0  0  0  0  0  0  0  0  0  0  0
   -3.2057    4.6962   -2.3710 C   0  0  0  0  0  0  0  0  0  0  0  0
   -3.8097    4.0690   -2.8952 H   0  0  0  0  0  0  0  0  0  0  0  0
   -2.7848    5.3303   -3.0441 H   0  0  0  0  0  0  0  0  0  0  0  0
   -3.8104    5.2697   -1.6684 H   0  0  0  0  0  0  0  0  0  0  0  0
   -1.9392    3.7718   -1.4911 S   0  0  0  0  0  0  0  0  0  0  0  0
   -1.7528    4.6735    0.1279 C   0  0  0  0  0  0  0  0  0  0  0  0
   -1.3790    4.0353    0.7858 H   0  0  0  0  0  0  0  0  0  0  0  0
   -1.1382    5.4351   -0.0214 H   0  0  0  0  0  0  0  0  0  0  0  0
   -2.6506    4.9866    0.4023 H   0  0  0  0  0  0  0  0  0  0  0  0
  1  5  1  0
  5  8  1  0
  1  2  1  0
  1  3  1  0
  1  4  1  0
  5  6  1  0
  5  7  1  0
  8  9  1  0
  8 10  1  0
  8 11  1  0
 12 16  1  0
 16 17  1  0
 12 13  1  0
 12 14  1  0
 12 15  1  0
 17 18  1  0
 17 19  1  0
 17 20  1  0
M  CHG  1   8   1
M  END
>  <PDB_ID>  (554) 
pdb1p5h

>  <RESIDUE_NAME>  (554) 
LYS   MET

>  <FRAG_NAME>  (554) 
ETAM   MSM

>  <FRAG_ATOM_NUM>  (554) 
fragi: 11  fragj: 9

>  <atom.prop.CHAIN_ID>  (554) 
A A A A A A A A A A A Z Z Z Z Z Z Z Z Z

>  <atom.prop.IS_HEAVY_ATOM>  (554) 
1 0 0 0 1 0 0 1 0 0 0 1 0 0 0 1 1 0 0 0

>  <DIFUSE_FUNC_ATOM>  (554) 
n/a

>  <FINAL_SINGLE_POINT_ENERGY>  (554) 
0

>  <NONCOV_INTER_ENERGY_QM>  (554) 
0

>  <FF_Energy>  (554) 
-5.07

>  <QM_Energy>  (554) 
-12.37

>  <source>  (554) 
ETAM_MSM

>  <Index>  (554) 
3248

$$$$
ETAM-pdb1p6b-A-LYS-82:MSM-pdb1p6b-A-MET-314
     RDKit          3D

 20 18  0  0  0  0  0  0  0  0999 V2000
    1.2146    0.8929   -0.0000 C   0  0  0  0  0  0  0  0  0  0  0  0
    1.1728    1.4899    0.8027 H   0  0  0  0  0  0  0  0  0  0  0  0
    1.2008    1.4510   -0.8309 H   0  0  0  0  0  0  0  0  0  0  0  0
    2.1439    0.3240    0.0303 H   0  0  0  0  0  0  0  0  0  0  0  0
    0.0000    0.0000    0.0000 C   0  0  0  0  0  0  0  0  0  0  0  0
    0.0235   -0.5787   -0.8161 H   0  0  0  0  0  0  0  0  0  0  0  0
    0.0230   -0.5782    0.8163 H   0  0  0  0  0  0  0  0  0  0  0  0
   -1.2146    0.8093    0.0000 N   0  0  0  0  0  4  0  0  0  0  0  0
   -1.3292    1.2610    0.8898 H   0  0  0  0  0  0  0  0  0  0  0  0
   -1.1615    1.5119   -0.7154 H   0  0  0  0  0  0  0  0  0  0  0  0
   -2.0164    0.2293   -0.1743 H   0  0  0  0  0  0  0  0  0  0  0  0
   -4.6960    2.5617   -2.5676 C   0  0  0  0  0  0  0  0  0  0  0  0
   -5.4319    2.7045   -3.2861 H   0  0  0  0  0  0  0  0  0  0  0  0
   -4.1744    3.4596   -2.5699 H   0  0  0  0  0  0  0  0  0  0  0  0
   -5.1770    2.4408   -1.5969 H   0  0  0  0  0  0  0  0  0  0  0  0
   -3.6083    1.2062   -3.0481 S   0  0  0  0  0  0  0  0  0  0  0  0
   -4.7031   -0.2341   -3.2796 C   0  0  0  0  0  0  0  0  0  0  0  0
   -4.3112   -1.0134   -2.7997 H   0  0  0  0  0  0  0  0  0  0  0  0
   -5.6007   -0.0164   -2.9069 H   0  0  0  0  0  0  0  0  0  0  0  0
   -4.7723   -0.4300   -4.2534 H   0  0  0  0  0  0  0  0  0  0  0  0
  1  5  1  0
  5  8  1  0
  1  2  1  0
  1  3  1  0
  1  4  1  0
  5  6  1  0
  5  7  1  0
  8  9  1  0
  8 10  1  0
  8 11  1  0
 12 16  1  0
 16 17  1  0
 12 13  1  0
 12 14  1  0
 12 15  1  0
 17 18  1  0
 17 19  1  0
 17 20  1  0
M  CHG  1   8   1
M  END
>  <PDB_ID>  (555) 
pdb1p6b

>  <RESIDUE_NAME>  (555) 
LYS   MET

>  <FRAG_NAME>  (555) 
ETAM   MSM

>  <FRAG_ATOM_NUM>  (555) 
fragi: 11  fragj: 9

>  <atom.prop.CHAIN_ID>  (555) 
A A A A A A A A A A A Z Z Z Z Z Z Z Z Z

>  <atom.prop.IS_HEAVY_ATOM>  (555) 
1 0 0 0 1 0 0 1 0 0 0 1 0 0 0 1 1 0 0 0

>  <DIFUSE_FUNC_ATOM>  (555) 
n/a

>  <FINAL_SINGLE_POINT_ENERGY>  (555) 
0

>  <NONCOV_INTER_ENERGY_QM>  (555) 
0

>  <FF_Energy>  (555) 
-4.04

>  <QM_Energy>  (555) 
-10.83

>  <source>  (555) 
ETAM_MSM

>  <Index>  (555) 
3255

$$$$
ETAM-pdb1p6b-B-LYS-82:MSM-pdb1p6b-B-MET-314
     RDKit          3D

 20 18  0  0  0  0  0  0  0  0999 V2000
    1.2502    0.8944    0.0000 C   0  0  0  0  0  0  0  0  0  0  0  0
    1.3088    1.3416    0.8996 H   0  0  0  0  0  0  0  0  0  0  0  0
    1.1213    1.6037   -0.7015 H   0  0  0  0  0  0  0  0  0  0  0  0
    2.1826    0.3646   -0.1952 H   0  0  0  0  0  0  0  0  0  0  0  0
    0.0000    0.0000    0.0000 C   0  0  0  0  0  0  0  0  0  0  0  0
    0.0330   -0.5856   -0.8160 H   0  0  0  0  0  0  0  0  0  0  0  0
    0.0323   -0.5867    0.8162 H   0  0  0  0  0  0  0  0  0  0  0  0
   -1.2502    0.7840    0.0000 N   0  0  0  0  0  4  0  0  0  0  0  0
   -1.5578    0.9295   -0.9417 H   0  0  0  0  0  0  0  0  0  0  0  0
   -1.9589    0.2894    0.5055 H   0  0  0  0  0  0  0  0  0  0  0  0
   -1.0923    1.6712    0.4364 H   0  0  0  0  0  0  0  0  0  0  0  0
   -4.8057    3.2580   -1.2160 C   0  0  0  0  0  0  0  0  0  0  0  0
   -5.6394    3.5948   -1.7239 H   0  0  0  0  0  0  0  0  0  0  0  0
   -4.2381    4.1066   -1.0595 H   0  0  0  0  0  0  0  0  0  0  0  0
   -5.1227    2.8671   -0.2491 H   0  0  0  0  0  0  0  0  0  0  0  0
   -3.8984    2.0680   -2.2122 S   0  0  0  0  0  0  0  0  0  0  0  0
   -5.2373    1.0037   -2.8395 C   0  0  0  0  0  0  0  0  0  0  0  0
   -4.9001    0.0688   -2.9025 H   0  0  0  0  0  0  0  0  0  0  0  0
   -6.0058    1.0494   -2.2077 H   0  0  0  0  0  0  0  0  0  0  0  0
   -5.5123    1.3317   -3.7389 H   0  0  0  0  0  0  0  0  0  0  0  0
  1  5  1  0
  5  8  1  0
  1  2  1  0
  1  3  1  0
  1  4  1  0
  5  6  1  0
  5  7  1  0
  8  9  1  0
  8 10  1  0
  8 11  1  0
 12 16  1  0
 16 17  1  0
 12 13  1  0
 12 14  1  0
 12 15  1  0
 17 18  1  0
 17 19  1  0
 17 20  1  0
M  CHG  1   8   1
M  END
>  <PDB_ID>  (556) 
pdb1p6b

>  <RESIDUE_NAME>  (556) 
LYS   MET

>  <FRAG_NAME>  (556) 
ETAM   MSM

>  <FRAG_ATOM_NUM>  (556) 
fragi: 11  fragj: 9

>  <atom.prop.CHAIN_ID>  (556) 
A A A A A A A A A A A Z Z Z Z Z Z Z Z Z

>  <atom.prop.IS_HEAVY_ATOM>  (556) 
1 0 0 0 1 0 0 1 0 0 0 1 0 0 0 1 1 0 0 0

>  <DIFUSE_FUNC_ATOM>  (556) 
n/a

>  <FINAL_SINGLE_POINT_ENERGY>  (556) 
0

>  <NONCOV_INTER_ENERGY_QM>  (556) 
0

>  <FF_Energy>  (556) 
-4.64

>  <QM_Energy>  (556) 
-12.53

>  <source>  (556) 
ETAM_MSM

>  <Index>  (556) 
3267

$$$$
ETAM-pdb1pbg-A-LYS-362:MSM-pdb1pbg-A-MET-359
     RDKit          3D

 20 18  0  0  0  0  0  0  0  0999 V2000
    1.2665    0.8541    0.0000 C   0  0  0  0  0  0  0  0  0  0  0  0
    2.0467    0.2576    0.1658 H   0  0  0  0  0  0  0  0  0  0  0  0
    1.1890    1.5292    0.7284 H   0  0  0  0  0  0  0  0  0  0  0  0
    1.4086    1.3692   -0.9501 H   0  0  0  0  0  0  0  0  0  0  0  0
    0.0000    0.0000    0.0000 C   0  0  0  0  0  0  0  0  0  0  0  0
    0.0143   -0.5974   -0.8163 H   0  0  0  0  0  0  0  0  0  0  0  0
    0.0140   -0.5979    0.8162 H   0  0  0  0  0  0  0  0  0  0  0  0
   -1.2665    0.7898   -0.0000 N   0  0  0  0  0  4  0  0  0  0  0  0
   -1.9515    0.3144   -0.5498 H   0  0  0  0  0  0  0  0  0  0  0  0
   -1.5957    0.8846    0.9377 H   0  0  0  0  0  0  0  0  0  0  0  0
   -1.0912    1.6930   -0.3877 H   0  0  0  0  0  0  0  0  0  0  0  0
    2.6672    4.2053    4.1554 C   0  0  0  0  0  0  0  0  0  0  0  0
    3.5600    4.3012    4.6902 H   0  0  0  0  0  0  0  0  0  0  0  0
    1.9447    4.4588    4.8665 H   0  0  0  0  0  0  0  0  0  0  0  0
    2.6566    4.9618    3.3708 H   0  0  0  0  0  0  0  0  0  0  0  0
    2.4400    2.4547    3.6431 S   0  0  0  0  0  0  0  0  0  0  0  0
    0.7234    2.4770    3.1292 C   0  0  0  0  0  0  0  0  0  0  0  0
    0.6578    2.2045    2.1679 H   0  0  0  0  0  0  0  0  0  0  0  0
    0.1961    1.8383    3.6920 H   0  0  0  0  0  0  0  0  0  0  0  0
    0.3523    3.4005    3.2385 H   0  0  0  0  0  0  0  0  0  0  0  0
  1  5  1  0
  5  8  1  0
  1  2  1  0
  1  3  1  0
  1  4  1  0
  5  6  1  0
  5  7  1  0
  8  9  1  0
  8 10  1  0
  8 11  1  0
 12 16  1  0
 16 17  1  0
 12 13  1  0
 12 14  1  0
 12 15  1  0
 17 18  1  0
 17 19  1  0
 17 20  1  0
M  CHG  1   8   1
M  END
>  <PDB_ID>  (557) 
pdb1pbg

>  <RESIDUE_NAME>  (557) 
LYS   MET

>  <FRAG_NAME>  (557) 
ETAM   MSM

>  <FRAG_ATOM_NUM>  (557) 
fragi: 11  fragj: 9

>  <atom.prop.CHAIN_ID>  (557) 
A A A A A A A A A A A Z Z Z Z Z Z Z Z Z

>  <atom.prop.IS_HEAVY_ATOM>  (557) 
1 0 0 0 1 0 0 1 0 0 0 1 0 0 0 1 1 0 0 0

>  <DIFUSE_FUNC_ATOM>  (557) 
n/a

>  <FINAL_SINGLE_POINT_ENERGY>  (557) 
0

>  <NONCOV_INTER_ENERGY_QM>  (557) 
0

>  <FF_Energy>  (557) 
6.5

>  <QM_Energy>  (557) 
0.35

>  <source>  (557) 
ETAM_MSM

>  <Index>  (557) 
3269

$$$$
ETAM-pdb1pdk-A-LYS-112:MSM-pdb1pdk-A-MET-172
     RDKit          3D

 20 18  0  0  0  0  0  0  0  0999 V2000
    1.2416    0.8713    0.0000 C   0  0  0  0  0  0  0  0  0  0  0  0
    1.2120    1.4731    0.7911 H   0  0  0  0  0  0  0  0  0  0  0  0
    1.2606    1.4030   -0.8400 H   0  0  0  0  0  0  0  0  0  0  0  0
    2.1500    0.2714    0.0534 H   0  0  0  0  0  0  0  0  0  0  0  0
    0.0000    0.0000    0.0000 C   0  0  0  0  0  0  0  0  0  0  0  0
    0.0043   -0.5778   -0.8164 H   0  0  0  0  0  0  0  0  0  0  0  0
    0.0041   -0.5776    0.8166 H   0  0  0  0  0  0  0  0  0  0  0  0
   -1.2416    0.8328   -0.0000 N   0  0  0  0  0  4  0  0  0  0  0  0
   -1.1310    1.5868   -0.6457 H   0  0  0  0  0  0  0  0  0  0  0  0
   -2.0172    0.2660   -0.2728 H   0  0  0  0  0  0  0  0  0  0  0  0
   -1.3948    1.1944    0.9181 H   0  0  0  0  0  0  0  0  0  0  0  0
   -2.1707    1.5009   -4.1174 C   0  0  0  0  0  0  0  0  0  0  0  0
   -2.1547    1.7015   -5.1384 H   0  0  0  0  0  0  0  0  0  0  0  0
   -2.3877    2.4265   -3.6940 H   0  0  0  0  0  0  0  0  0  0  0  0
   -3.0166    0.8414   -3.9236 H   0  0  0  0  0  0  0  0  0  0  0  0
   -0.5528    0.9101   -3.5593 S   0  0  0  0  0  0  0  0  0  0  0  0
   -0.0262    2.0386   -2.9990 C   0  0  0  0  0  0  0  0  0  0  0  0
   -0.5458    2.5387   -2.1807 H   0  0  0  0  0  0  0  0  0  0  0  0
    0.9588    2.0104   -2.5317 H   0  0  0  0  0  0  0  0  0  0  0  0
    0.1433    2.9268   -3.6103 H   0  0  0  0  0  0  0  0  0  0  0  0
  1  5  1  0
  5  8  1  0
  1  2  1  0
  1  3  1  0
  1  4  1  0
  5  6  1  0
  5  7  1  0
  8  9  1  0
  8 10  1  0
  8 11  1  0
 12 16  1  0
 16 17  1  0
 12 13  1  0
 12 14  1  0
 12 15  1  0
 17 18  1  0
 17 19  1  0
 17 20  1  0
M  CHG  1   8   1
M  END
>  <PDB_ID>  (558) 
pdb1pdk

>  <RESIDUE_NAME>  (558) 
LYS   MET

>  <FRAG_NAME>  (558) 
ETAM   MSM

>  <FRAG_ATOM_NUM>  (558) 
fragi: 11  fragj: 9

>  <atom.prop.CHAIN_ID>  (558) 
A A A A A A A A A A A Z Z Z Z Z Z Z Z Z

>  <atom.prop.IS_HEAVY_ATOM>  (558) 
1 0 0 0 1 0 0 1 0 0 0 1 0 0 0 1 1 0 0 0

>  <DIFUSE_FUNC_ATOM>  (558) 
n/a

>  <FINAL_SINGLE_POINT_ENERGY>  (558) 
0

>  <NONCOV_INTER_ENERGY_QM>  (558) 
0

>  <FF_Energy>  (558) 
-0.31

>  <QM_Energy>  (558) 
-6.99

>  <source>  (558) 
ETAM_MSM

>  <Index>  (558) 
3276

$$$$
ETAM-pdb2vub-D-LYS-4:MSM-pdb2vub-D-MET-1
     RDKit          3D

 20 18  0  0  0  0  0  0  0  0999 V2000
    1.2784    0.8614   -0.0000 C   0  0  0  0  0  0  0  0  0  0  0  0
    1.1396    1.6205   -0.6332 H   0  0  0  0  0  0  0  0  0  0  0  0
    2.0346    0.2911   -0.3164 H   0  0  0  0  0  0  0  0  0  0  0  0
    1.5215    1.2608    0.9846 H   0  0  0  0  0  0  0  0  0  0  0  0
    0.0000    0.0000    0.0000 C   0  0  0  0  0  0  0  0  0  0  0  0
    0.0215   -0.5988   -0.8166 H   0  0  0  0  0  0  0  0  0  0  0  0
    0.0207   -0.5999    0.8165 H   0  0  0  0  0  0  0  0  0  0  0  0
   -1.2784    0.7786    0.0000 N   0  0  0  0  0  4  0  0  0  0  0  0
   -2.0218    0.1871   -0.3053 H   0  0  0  0  0  0  0  0  0  0  0  0
   -1.4640    1.1037    0.9253 H   0  0  0  0  0  0  0  0  0  0  0  0
   -1.1881    1.5559   -0.6194 H   0  0  0  0  0  0  0  0  0  0  0  0
   -1.8546    2.7968    4.5139 C   0  0  0  0  0  0  0  0  0  0  0  0
   -2.2468    2.5852    5.4289 H   0  0  0  0  0  0  0  0  0  0  0  0
   -1.7350    3.8064    4.4740 H   0  0  0  0  0  0  0  0  0  0  0  0
   -0.8755    2.3242    4.4356 H   0  0  0  0  0  0  0  0  0  0  0  0
   -2.9554    2.2311    3.1995 S   0  0  0  0  0  0  0  0  0  0  0  0
   -2.7084    0.4478    3.3085 C   0  0  0  0  0  0  0  0  0  0  0  0
   -2.9011    0.1448    4.2405 H   0  0  0  0  0  0  0  0  0  0  0  0
   -3.3268   -0.0106    2.6713 H   0  0  0  0  0  0  0  0  0  0  0  0
   -1.7623    0.2315    3.0733 H   0  0  0  0  0  0  0  0  0  0  0  0
  1  5  1  0
  5  8  1  0
  1  2  1  0
  1  3  1  0
  1  4  1  0
  5  6  1  0
  5  7  1  0
  8  9  1  0
  8 10  1  0
  8 11  1  0
 12 16  1  0
 16 17  1  0
 12 13  1  0
 12 14  1  0
 12 15  1  0
 17 18  1  0
 17 19  1  0
 17 20  1  0
M  CHG  1   8   1
M  END
>  <PDB_ID>  (559) 
pdb2vub

>  <RESIDUE_NAME>  (559) 
LYS   MET

>  <FRAG_NAME>  (559) 
ETAM   MSM

>  <FRAG_ATOM_NUM>  (559) 
fragi: 11  fragj: 9

>  <atom.prop.CHAIN_ID>  (559) 
A A A A A A A A A A A Z Z Z Z Z Z Z Z Z

>  <atom.prop.IS_HEAVY_ATOM>  (559) 
1 0 0 0 1 0 0 1 0 0 0 1 0 0 0 1 1 0 0 0

>  <DIFUSE_FUNC_ATOM>  (559) 
n/a

>  <FINAL_SINGLE_POINT_ENERGY>  (559) 
0

>  <NONCOV_INTER_ENERGY_QM>  (559) 
0

>  <FF_Energy>  (559) 
-2.98

>  <QM_Energy>  (559) 
-8.41

>  <source>  (559) 
ETAM_MSM

>  <Index>  (559) 
3278

$$$$
ETAM-pdb2vuo-A-LYS-248:MSM-pdb2vuo-A-MET-252
     RDKit          3D

 20 18  0  0  0  0  0  0  0  0999 V2000
    1.2619    0.8593   -0.0000 C   0  0  0  0  0  0  0  0  0  0  0  0
    1.1779    1.5412   -0.7199 H   0  0  0  0  0  0  0  0  0  0  0  0
    2.0440    0.2689   -0.1732 H   0  0  0  0  0  0  0  0  0  0  0  0
    1.4040    1.3672    0.9539 H   0  0  0  0  0  0  0  0  0  0  0  0
    0.0000    0.0000    0.0000 C   0  0  0  0  0  0  0  0  0  0  0  0
    0.0116   -0.5919   -0.8163 H   0  0  0  0  0  0  0  0  0  0  0  0
    0.0114   -0.5929    0.8159 H   0  0  0  0  0  0  0  0  0  0  0  0
   -1.2619    0.8011   -0.0000 N   0  0  0  0  0  4  0  0  0  0  0  0
   -1.2308    1.4617   -0.7474 H   0  0  0  0  0  0  0  0  0  0  0  0
   -2.0400    0.1879   -0.1239 H   0  0  0  0  0  0  0  0  0  0  0  0
   -1.3465    1.2812    0.8718 H   0  0  0  0  0  0  0  0  0  0  0  0
   -1.1238    1.0263    4.6896 C   0  0  0  0  0  0  0  0  0  0  0  0
   -2.0746    1.3983    4.8060 H   0  0  0  0  0  0  0  0  0  0  0  0
   -0.5568    1.8267    4.3841 H   0  0  0  0  0  0  0  0  0  0  0  0
   -0.7608    0.6942    5.6622 H   0  0  0  0  0  0  0  0  0  0  0  0
   -1.0993   -0.2801    3.4467 S   0  0  0  0  0  0  0  0  0  0  0  0
   -2.3163   -1.4139    4.1132 C   0  0  0  0  0  0  0  0  0  0  0  0
   -2.0525   -1.6820    5.0408 H   0  0  0  0  0  0  0  0  0  0  0  0
   -3.2117   -0.9680    4.1392 H   0  0  0  0  0  0  0  0  0  0  0  0
   -2.3686   -2.2289    3.5344 H   0  0  0  0  0  0  0  0  0  0  0  0
  1  5  1  0
  5  8  1  0
  1  2  1  0
  1  3  1  0
  1  4  1  0
  5  6  1  0
  5  7  1  0
  8  9  1  0
  8 10  1  0
  8 11  1  0
 12 16  1  0
 16 17  1  0
 12 13  1  0
 12 14  1  0
 12 15  1  0
 17 18  1  0
 17 19  1  0
 17 20  1  0
M  CHG  1   8   1
M  END
>  <PDB_ID>  (560) 
pdb2vuo

>  <RESIDUE_NAME>  (560) 
LYS   MET

>  <FRAG_NAME>  (560) 
ETAM   MSM

>  <FRAG_ATOM_NUM>  (560) 
fragi: 11  fragj: 9

>  <atom.prop.CHAIN_ID>  (560) 
A A A A A A A A A A A Z Z Z Z Z Z Z Z Z

>  <atom.prop.IS_HEAVY_ATOM>  (560) 
1 0 0 0 1 0 0 1 0 0 0 1 0 0 0 1 1 0 0 0

>  <DIFUSE_FUNC_ATOM>  (560) 
n/a

>  <FINAL_SINGLE_POINT_ENERGY>  (560) 
0

>  <NONCOV_INTER_ENERGY_QM>  (560) 
0

>  <FF_Energy>  (560) 
-5.1

>  <QM_Energy>  (560) 
-13.02

>  <source>  (560) 
ETAM_MSM

>  <Index>  (560) 
3280

$$$$
ETAM-pdb2vuo-B-LYS-248:MSM-pdb2vuo-B-MET-252
     RDKit          3D

 20 18  0  0  0  0  0  0  0  0999 V2000
    1.2540    0.8670   -0.0000 C   0  0  0  0  0  0  0  0  0  0  0  0
    1.1738    1.5366   -0.7294 H   0  0  0  0  0  0  0  0  0  0  0  0
    2.0422    0.2811   -0.1482 H   0  0  0  0  0  0  0  0  0  0  0  0
    1.3716    1.3886    0.9498 H   0  0  0  0  0  0  0  0  0  0  0  0
    0.0000    0.0000    0.0000 C   0  0  0  0  0  0  0  0  0  0  0  0
    0.0098   -0.5853   -0.8168 H   0  0  0  0  0  0  0  0  0  0  0  0
    0.0089   -0.5852    0.8160 H   0  0  0  0  0  0  0  0  0  0  0  0
   -1.2540    0.8152    0.0000 N   0  0  0  0  0  4  0  0  0  0  0  0
   -1.1419    1.5896    0.6197 H   0  0  0  0  0  0  0  0  0  0  0  0
   -1.4306    1.1458   -0.9256 H   0  0  0  0  0  0  0  0  0  0  0  0
   -2.0153    0.2459    0.3052 H   0  0  0  0  0  0  0  0  0  0  0  0
   -1.4356    1.3746    4.4694 C   0  0  0  0  0  0  0  0  0  0  0  0
   -2.3942    1.7315    4.4885 H   0  0  0  0  0  0  0  0  0  0  0  0
   -0.8537    2.1529    4.1506 H   0  0  0  0  0  0  0  0  0  0  0  0
   -1.1410    1.1110    5.4852 H   0  0  0  0  0  0  0  0  0  0  0  0
   -1.2994   -0.0246    3.3453 S   0  0  0  0  0  0  0  0  0  0  0  0
   -2.5269   -1.1325    4.0387 C   0  0  0  0  0  0  0  0  0  0  0  0
   -2.5255   -1.0517    5.0367 H   0  0  0  0  0  0  0  0  0  0  0  0
   -3.4322   -0.8922    3.6868 H   0  0  0  0  0  0  0  0  0  0  0  0
   -2.3110   -2.0753    3.7819 H   0  0  0  0  0  0  0  0  0  0  0  0
  1  5  1  0
  5  8  1  0
  1  2  1  0
  1  3  1  0
  1  4  1  0
  5  6  1  0
  5  7  1  0
  8  9  1  0
  8 10  1  0
  8 11  1  0
 12 16  1  0
 16 17  1  0
 12 13  1  0
 12 14  1  0
 12 15  1  0
 17 18  1  0
 17 19  1  0
 17 20  1  0
M  CHG  1   8   1
M  END
>  <PDB_ID>  (561) 
pdb2vuo

>  <RESIDUE_NAME>  (561) 
LYS   MET

>  <FRAG_NAME>  (561) 
ETAM   MSM

>  <FRAG_ATOM_NUM>  (561) 
fragi: 11  fragj: 9

>  <atom.prop.CHAIN_ID>  (561) 
A A A A A A A A A A A Z Z Z Z Z Z Z Z Z

>  <atom.prop.IS_HEAVY_ATOM>  (561) 
1 0 0 0 1 0 0 1 0 0 0 1 0 0 0 1 1 0 0 0

>  <DIFUSE_FUNC_ATOM>  (561) 
n/a

>  <FINAL_SINGLE_POINT_ENERGY>  (561) 
0

>  <NONCOV_INTER_ENERGY_QM>  (561) 
0

>  <FF_Energy>  (561) 
-5.22

>  <QM_Energy>  (561) 
-13.25

>  <source>  (561) 
ETAM_MSM

>  <Index>  (561) 
3282

$$$$
ETAM-pdb2vuo-B-LYS-248:MSM-pdb2vuo-B-MET-428
     RDKit          3D

 20 18  0  0  0  0  0  0  0  0999 V2000
    1.2540    0.8670   -0.0000 C   0  0  0  0  0  0  0  0  0  0  0  0
    1.1738    1.5366   -0.7294 H   0  0  0  0  0  0  0  0  0  0  0  0
    2.0422    0.2811   -0.1482 H   0  0  0  0  0  0  0  0  0  0  0  0
    1.3716    1.3886    0.9498 H   0  0  0  0  0  0  0  0  0  0  0  0
    0.0000    0.0000    0.0000 C   0  0  0  0  0  0  0  0  0  0  0  0
    0.0098   -0.5853   -0.8168 H   0  0  0  0  0  0  0  0  0  0  0  0
    0.0089   -0.5852    0.8160 H   0  0  0  0  0  0  0  0  0  0  0  0
   -1.2540    0.8152    0.0000 N   0  0  0  0  0  4  0  0  0  0  0  0
   -1.1419    1.5896    0.6197 H   0  0  0  0  0  0  0  0  0  0  0  0
   -1.4306    1.1458   -0.9256 H   0  0  0  0  0  0  0  0  0  0  0  0
   -2.0153    0.2459    0.3052 H   0  0  0  0  0  0  0  0  0  0  0  0
   -3.2403    4.8418    0.6245 C   0  0  0  0  0  0  0  0  0  0  0  0
   -4.2181    5.0943    0.7718 H   0  0  0  0  0  0  0  0  0  0  0  0
   -3.1667    4.5416   -0.3482 H   0  0  0  0  0  0  0  0  0  0  0  0
   -2.6249    5.7304    0.7654 H   0  0  0  0  0  0  0  0  0  0  0  0
   -2.7487    3.5149    1.7402 S   0  0  0  0  0  0  0  0  0  0  0  0
   -3.4755    4.0922    3.2723 C   0  0  0  0  0  0  0  0  0  0  0  0
   -3.1528    3.5258    4.0316 H   0  0  0  0  0  0  0  0  0  0  0  0
   -3.2095    5.0435    3.4328 H   0  0  0  0  0  0  0  0  0  0  0  0
   -4.4733    4.0316    3.2147 H   0  0  0  0  0  0  0  0  0  0  0  0
  1  5  1  0
  5  8  1  0
  1  2  1  0
  1  3  1  0
  1  4  1  0
  5  6  1  0
  5  7  1  0
  8  9  1  0
  8 10  1  0
  8 11  1  0
 12 16  1  0
 16 17  1  0
 12 13  1  0
 12 14  1  0
 12 15  1  0
 17 18  1  0
 17 19  1  0
 17 20  1  0
M  CHG  1   8   1
M  END
>  <PDB_ID>  (562) 
pdb2vuo

>  <RESIDUE_NAME>  (562) 
LYS   MET

>  <FRAG_NAME>  (562) 
ETAM   MSM

>  <FRAG_ATOM_NUM>  (562) 
fragi: 11  fragj: 9

>  <atom.prop.CHAIN_ID>  (562) 
A A A A A A A A A A A Z Z Z Z Z Z Z Z Z

>  <atom.prop.IS_HEAVY_ATOM>  (562) 
1 0 0 0 1 0 0 1 0 0 0 1 0 0 0 1 1 0 0 0

>  <DIFUSE_FUNC_ATOM>  (562) 
n/a

>  <FINAL_SINGLE_POINT_ENERGY>  (562) 
0

>  <NONCOV_INTER_ENERGY_QM>  (562) 
0

>  <FF_Energy>  (562) 
-5.26

>  <QM_Energy>  (562) 
-12.38

>  <source>  (562) 
ETAM_MSM

>  <Index>  (562) 
3283

$$$$
ETAM-pdb1pg3-B-LYS-131:MSM-pdb1pg3-B-MET-253
     RDKit          3D

 20 18  0  0  0  0  0  0  0  0999 V2000
    1.2438    0.8602    0.0000 C   0  0  0  0  0  0  0  0  0  0  0  0
    1.1506    1.5578    0.6997 H   0  0  0  0  0  0  0  0  0  0  0  0
    1.3475    1.2723   -0.8961 H   0  0  0  0  0  0  0  0  0  0  0  0
    2.1254    0.2572    0.2171 H   0  0  0  0  0  0  0  0  0  0  0  0
    0.0000    0.0000    0.0000 C   0  0  0  0  0  0  0  0  0  0  0  0
    0.0098   -0.5894   -0.8164 H   0  0  0  0  0  0  0  0  0  0  0  0
    0.0094   -0.5901    0.8170 H   0  0  0  0  0  0  0  0  0  0  0  0
   -1.2438    0.8088   -0.0000 N   0  0  0  0  0  4  0  0  0  0  0  0
   -1.6023    0.8696   -0.9318 H   0  0  0  0  0  0  0  0  0  0  0  0
   -1.9249    0.3750    0.5910 H   0  0  0  0  0  0  0  0  0  0  0  0
   -1.0442    1.7285    0.3409 H   0  0  0  0  0  0  0  0  0  0  0  0
   -1.4915    1.2525    5.0331 C   0  0  0  0  0  0  0  0  0  0  0  0
   -1.5911    2.1304    5.5518 H   0  0  0  0  0  0  0  0  0  0  0  0
   -1.0531    0.5955    5.6855 H   0  0  0  0  0  0  0  0  0  0  0  0
   -2.4866    0.8830    4.7856 H   0  0  0  0  0  0  0  0  0  0  0  0
   -0.4768    1.4806    3.5762 S   0  0  0  0  0  0  0  0  0  0  0  0
    0.3366    3.0105    3.9935 C   0  0  0  0  0  0  0  0  0  0  0  0
    0.5816    3.0114    4.9651 H   0  0  0  0  0  0  0  0  0  0  0  0
    1.1695    3.1133    3.4449 H   0  0  0  0  0  0  0  0  0  0  0  0
   -0.2754    3.7825    3.8084 H   0  0  0  0  0  0  0  0  0  0  0  0
  1  5  1  0
  5  8  1  0
  1  2  1  0
  1  3  1  0
  1  4  1  0
  5  6  1  0
  5  7  1  0
  8  9  1  0
  8 10  1  0
  8 11  1  0
 12 16  1  0
 16 17  1  0
 12 13  1  0
 12 14  1  0
 12 15  1  0
 17 18  1  0
 17 19  1  0
 17 20  1  0
M  CHG  1   8   1
M  END
>  <PDB_ID>  (563) 
pdb1pg3

>  <RESIDUE_NAME>  (563) 
LYS   MET

>  <FRAG_NAME>  (563) 
ETAM   MSM

>  <FRAG_ATOM_NUM>  (563) 
fragi: 11  fragj: 9

>  <atom.prop.CHAIN_ID>  (563) 
A A A A A A A A A A A Z Z Z Z Z Z Z Z Z

>  <atom.prop.IS_HEAVY_ATOM>  (563) 
1 0 0 0 1 0 0 1 0 0 0 1 0 0 0 1 1 0 0 0

>  <DIFUSE_FUNC_ATOM>  (563) 
n/a

>  <FINAL_SINGLE_POINT_ENERGY>  (563) 
0

>  <NONCOV_INTER_ENERGY_QM>  (563) 
0

>  <FF_Energy>  (563) 
-5.45

>  <QM_Energy>  (563) 
-12.22

>  <source>  (563) 
ETAM_MSM

>  <Index>  (563) 
3287

$$$$
ETAM-pdb1pme-A-LYS-164:MSM-pdb1pme-A-MET-108
     RDKit          3D

 20 18  0  0  0  0  0  0  0  0999 V2000
    1.2301    0.8808   -0.0000 C   0  0  0  0  0  0  0  0  0  0  0  0
    1.1172    1.5887    0.6987 H   0  0  0  0  0  0  0  0  0  0  0  0
    1.3136    1.3125   -0.8989 H   0  0  0  0  0  0  0  0  0  0  0  0
    2.1445    0.3256    0.2091 H   0  0  0  0  0  0  0  0  0  0  0  0
    0.0000    0.0000    0.0000 C   0  0  0  0  0  0  0  0  0  0  0  0
    0.0040   -0.5709   -0.8158 H   0  0  0  0  0  0  0  0  0  0  0  0
    0.0038   -0.5720    0.8167 H   0  0  0  0  0  0  0  0  0  0  0  0
   -1.2301    0.8431   -0.0000 N   0  0  0  0  0  4  0  0  0  0  0  0
   -2.0284    0.2619   -0.1500 H   0  0  0  0  0  0  0  0  0  0  0  0
   -1.3135    1.3061    0.8816 H   0  0  0  0  0  0  0  0  0  0  0  0
   -1.1656    1.5217   -0.7307 H   0  0  0  0  0  0  0  0  0  0  0  0
    0.5632    3.9160    3.1017 C   0  0  0  0  0  0  0  0  0  0  0  0
   -0.0554    4.5044    2.5175 H   0  0  0  0  0  0  0  0  0  0  0  0
    1.4470    3.8661    2.5658 H   0  0  0  0  0  0  0  0  0  0  0  0
    0.7612    4.4531    4.0293 H   0  0  0  0  0  0  0  0  0  0  0  0
   -0.1421    2.2737    3.3231 S   0  0  0  0  0  0  0  0  0  0  0  0
    1.3212    1.3371    3.8242 C   0  0  0  0  0  0  0  0  0  0  0  0
    1.1540    0.9207    4.7163 H   0  0  0  0  0  0  0  0  0  0  0  0
    1.5022    0.6266    3.1472 H   0  0  0  0  0  0  0  0  0  0  0  0
    2.1028    1.9563    3.8815 H   0  0  0  0  0  0  0  0  0  0  0  0
  1  5  1  0
  5  8  1  0
  1  2  1  0
  1  3  1  0
  1  4  1  0
  5  6  1  0
  5  7  1  0
  8  9  1  0
  8 10  1  0
  8 11  1  0
 12 16  1  0
 16 17  1  0
 12 13  1  0
 12 14  1  0
 12 15  1  0
 17 18  1  0
 17 19  1  0
 17 20  1  0
M  CHG  1   8   1
M  END
>  <PDB_ID>  (564) 
pdb1pme

>  <RESIDUE_NAME>  (564) 
LYS   MET

>  <FRAG_NAME>  (564) 
ETAM   MSM

>  <FRAG_ATOM_NUM>  (564) 
fragi: 11  fragj: 9

>  <atom.prop.CHAIN_ID>  (564) 
A A A A A A A A A A A Z Z Z Z Z Z Z Z Z

>  <atom.prop.IS_HEAVY_ATOM>  (564) 
1 0 0 0 1 0 0 1 0 0 0 1 0 0 0 1 1 0 0 0

>  <DIFUSE_FUNC_ATOM>  (564) 
n/a

>  <FINAL_SINGLE_POINT_ENERGY>  (564) 
0

>  <NONCOV_INTER_ENERGY_QM>  (564) 
0

>  <FF_Energy>  (564) 
-5.16

>  <QM_Energy>  (564) 
-13.16

>  <source>  (564) 
ETAM_MSM

>  <Index>  (564) 
3311

$$$$
ETAM-pdb2rdx-E-LYS-239:MSM-pdb2rdx-E-MET-191
     RDKit          3D

 20 18  0  0  0  0  0  0  0  0999 V2000
    1.2412    0.8523    0.0000 C   0  0  0  0  0  0  0  0  0  0  0  0
    1.4476    1.1240    0.9338 H   0  0  0  0  0  0  0  0  0  0  0  0
    1.0841    1.6516   -0.5692 H   0  0  0  0  0  0  0  0  0  0  0  0
    2.0910    0.2985   -0.3989 H   0  0  0  0  0  0  0  0  0  0  0  0
    0.0000    0.0000    0.0000 C   0  0  0  0  0  0  0  0  0  0  0  0
    0.0043   -0.5902   -0.8165 H   0  0  0  0  0  0  0  0  0  0  0  0
    0.0038   -0.5901    0.8168 H   0  0  0  0  0  0  0  0  0  0  0  0
   -1.2412    0.8144   -0.0000 N   0  0  0  0  0  4  0  0  0  0  0  0
   -2.0351    0.2127    0.0857 H   0  0  0  0  0  0  0  0  0  0  0  0
   -1.2217    1.4522    0.7700 H   0  0  0  0  0  0  0  0  0  0  0  0
   -1.3032    1.3274   -0.8565 H   0  0  0  0  0  0  0  0  0  0  0  0
   -1.0931    5.6150   -0.3067 C   0  0  0  0  0  0  0  0  0  0  0  0
   -1.6987    6.4317   -0.2300 H   0  0  0  0  0  0  0  0  0  0  0  0
   -1.4098    5.0990   -1.1276 H   0  0  0  0  0  0  0  0  0  0  0  0
   -0.0679    5.9479   -0.4689 H   0  0  0  0  0  0  0  0  0  0  0  0
   -1.2207    4.5895    1.1738 S   0  0  0  0  0  0  0  0  0  0  0  0
   -1.2861    5.9103    2.3958 C   0  0  0  0  0  0  0  0  0  0  0  0
   -2.1880    5.9173    2.8274 H   0  0  0  0  0  0  0  0  0  0  0  0
   -0.5834    5.7546    3.0892 H   0  0  0  0  0  0  0  0  0  0  0  0
   -1.1235    6.7867    1.9444 H   0  0  0  0  0  0  0  0  0  0  0  0
  1  5  1  0
  5  8  1  0
  1  2  1  0
  1  3  1  0
  1  4  1  0
  5  6  1  0
  5  7  1  0
  8  9  1  0
  8 10  1  0
  8 11  1  0
 12 16  1  0
 16 17  1  0
 12 13  1  0
 12 14  1  0
 12 15  1  0
 17 18  1  0
 17 19  1  0
 17 20  1  0
M  CHG  1   8   1
M  END
>  <PDB_ID>  (565) 
pdb2rdx

>  <RESIDUE_NAME>  (565) 
LYS   MET

>  <FRAG_NAME>  (565) 
ETAM   MSM

>  <FRAG_ATOM_NUM>  (565) 
fragi: 11  fragj: 9

>  <atom.prop.CHAIN_ID>  (565) 
A A A A A A A A A A A Z Z Z Z Z Z Z Z Z

>  <atom.prop.IS_HEAVY_ATOM>  (565) 
1 0 0 0 1 0 0 1 0 0 0 1 0 0 0 1 1 0 0 0

>  <DIFUSE_FUNC_ATOM>  (565) 
n/a

>  <FINAL_SINGLE_POINT_ENERGY>  (565) 
0

>  <NONCOV_INTER_ENERGY_QM>  (565) 
0

>  <FF_Energy>  (565) 
-4.56

>  <QM_Energy>  (565) 
-9.66

>  <source>  (565) 
ETAM_MSM

>  <Index>  (565) 
3315

$$$$
ETAM-pdb1pne-A-LYS-125:MSM-pdb1pne-A-MET-122
     RDKit          3D

 20 18  0  0  0  0  0  0  0  0999 V2000
    1.2773    0.8534   -0.0000 C   0  0  0  0  0  0  0  0  0  0  0  0
    1.3821    1.2626    0.8952 H   0  0  0  0  0  0  0  0  0  0  0  0
    1.1934    1.5441   -0.7028 H   0  0  0  0  0  0  0  0  0  0  0  0
    2.1553    0.2429   -0.2107 H   0  0  0  0  0  0  0  0  0  0  0  0
    0.0000    0.0000    0.0000 C   0  0  0  0  0  0  0  0  0  0  0  0
    0.0112   -0.5967   -0.8165 H   0  0  0  0  0  0  0  0  0  0  0  0
    0.0114   -0.5967    0.8166 H   0  0  0  0  0  0  0  0  0  0  0  0
   -1.2773    0.7957   -0.0000 N   0  0  0  0  0  4  0  0  0  0  0  0
   -1.5401    0.9844    0.9425 H   0  0  0  0  0  0  0  0  0  0  0  0
   -1.1257    1.6509   -0.4894 H   0  0  0  0  0  0  0  0  0  0  0  0
   -1.9890    0.2650   -0.4533 H   0  0  0  0  0  0  0  0  0  0  0  0
   -4.0178   -1.8180   -2.9171 C   0  0  0  0  0  0  0  0  0  0  0  0
   -3.9389   -1.2923   -3.7813 H   0  0  0  0  0  0  0  0  0  0  0  0
   -4.9407   -2.2406   -2.9089 H   0  0  0  0  0  0  0  0  0  0  0  0
   -3.2672   -2.6083   -2.9154 H   0  0  0  0  0  0  0  0  0  0  0  0
   -3.7902   -0.7475   -1.4931 S   0  0  0  0  0  0  0  0  0  0  0  0
   -4.3469   -1.8383   -0.1919 C   0  0  0  0  0  0  0  0  0  0  0  0
   -4.1255   -1.4408    0.7003 H   0  0  0  0  0  0  0  0  0  0  0  0
   -5.3378   -1.9660   -0.2592 H   0  0  0  0  0  0  0  0  0  0  0  0
   -3.8933   -2.7271   -0.2792 H   0  0  0  0  0  0  0  0  0  0  0  0
  1  5  1  0
  5  8  1  0
  1  2  1  0
  1  3  1  0
  1  4  1  0
  5  6  1  0
  5  7  1  0
  8  9  1  0
  8 10  1  0
  8 11  1  0
 12 16  1  0
 16 17  1  0
 12 13  1  0
 12 14  1  0
 12 15  1  0
 17 18  1  0
 17 19  1  0
 17 20  1  0
M  CHG  1   8   1
M  END
>  <PDB_ID>  (566) 
pdb1pne

>  <RESIDUE_NAME>  (566) 
LYS   MET

>  <FRAG_NAME>  (566) 
ETAM   MSM

>  <FRAG_ATOM_NUM>  (566) 
fragi: 11  fragj: 9

>  <atom.prop.CHAIN_ID>  (566) 
A A A A A A A A A A A Z Z Z Z Z Z Z Z Z

>  <atom.prop.IS_HEAVY_ATOM>  (566) 
1 0 0 0 1 0 0 1 0 0 0 1 0 0 0 1 1 0 0 0

>  <DIFUSE_FUNC_ATOM>  (566) 
n/a

>  <FINAL_SINGLE_POINT_ENERGY>  (566) 
0

>  <NONCOV_INTER_ENERGY_QM>  (566) 
0

>  <FF_Energy>  (566) 
-5.5

>  <QM_Energy>  (566) 
-15.69

>  <source>  (566) 
ETAM_MSM

>  <Index>  (566) 
3327

$$$$
ETAM-pdb2w2i-A-LYS-47:MSM-pdb2w2i-A-MET-261
     RDKit          3D

 20 18  0  0  0  0  0  0  0  0999 V2000
    1.2286    0.8695   -0.0000 C   0  0  0  0  0  0  0  0  0  0  0  0
    1.2365    1.4182    0.8330 H   0  0  0  0  0  0  0  0  0  0  0  0
    1.2017    1.4662   -0.7995 H   0  0  0  0  0  0  0  0  0  0  0  0
    2.1419    0.2755   -0.0355 H   0  0  0  0  0  0  0  0  0  0  0  0
    0.0000    0.0000    0.0000 C   0  0  0  0  0  0  0  0  0  0  0  0
    0.0062   -0.5804   -0.8159 H   0  0  0  0  0  0  0  0  0  0  0  0
    0.0051   -0.5796    0.8165 H   0  0  0  0  0  0  0  0  0  0  0  0
   -1.2286    0.8284    0.0000 N   0  0  0  0  0  4  0  0  0  0  0  0
   -1.5514    0.9485   -0.9393 H   0  0  0  0  0  0  0  0  0  0  0  0
   -1.9384    0.3752    0.5401 H   0  0  0  0  0  0  0  0  0  0  0  0
   -1.0283    1.7239    0.3993 H   0  0  0  0  0  0  0  0  0  0  0  0
   -1.3201   -2.3891    2.9163 C   0  0  0  0  0  0  0  0  0  0  0  0
   -0.3278   -2.7106    2.9155 H   0  0  0  0  0  0  0  0  0  0  0  0
   -1.6586   -2.6656    1.9695 H   0  0  0  0  0  0  0  0  0  0  0  0
   -1.8607   -2.9872    3.6498 H   0  0  0  0  0  0  0  0  0  0  0  0
   -1.4084   -0.6007    3.1246 S   0  0  0  0  0  0  0  0  0  0  0  0
   -0.3503   -0.3173    4.5609 C   0  0  0  0  0  0  0  0  0  0  0  0
   -0.9157   -0.2823    5.3831 H   0  0  0  0  0  0  0  0  0  0  0  0
    0.3083   -1.0642    4.6360 H   0  0  0  0  0  0  0  0  0  0  0  0
    0.1332    0.5494    4.4470 H   0  0  0  0  0  0  0  0  0  0  0  0
  1  5  1  0
  5  8  1  0
  1  2  1  0
  1  3  1  0
  1  4  1  0
  5  6  1  0
  5  7  1  0
  8  9  1  0
  8 10  1  0
  8 11  1  0
 12 16  1  0
 16 17  1  0
 12 13  1  0
 12 14  1  0
 12 15  1  0
 17 18  1  0
 17 19  1  0
 17 20  1  0
M  CHG  1   8   1
M  END
>  <PDB_ID>  (567) 
pdb2w2i

>  <RESIDUE_NAME>  (567) 
LYS   MET

>  <FRAG_NAME>  (567) 
ETAM   MSM

>  <FRAG_ATOM_NUM>  (567) 
fragi: 11  fragj: 9

>  <atom.prop.CHAIN_ID>  (567) 
A A A A A A A A A A A Z Z Z Z Z Z Z Z Z

>  <atom.prop.IS_HEAVY_ATOM>  (567) 
1 0 0 0 1 0 0 1 0 0 0 1 0 0 0 1 1 0 0 0

>  <DIFUSE_FUNC_ATOM>  (567) 
n/a

>  <FINAL_SINGLE_POINT_ENERGY>  (567) 
0

>  <NONCOV_INTER_ENERGY_QM>  (567) 
0

>  <FF_Energy>  (567) 
-4.66

>  <QM_Energy>  (567) 
-12.57

>  <source>  (567) 
ETAM_MSM

>  <Index>  (567) 
3330

$$$$
ETAM-pdb2w2i-B-LYS-47:MSM-pdb2w2i-B-MET-261
     RDKit          3D

 20 18  0  0  0  0  0  0  0  0999 V2000
    1.2415    0.8391   -0.0000 C   0  0  0  0  0  0  0  0  0  0  0  0
    1.3167    1.3204    0.8684 H   0  0  0  0  0  0  0  0  0  0  0  0
    1.2025    1.4888   -0.7532 H   0  0  0  0  0  0  0  0  0  0  0  0
    2.1351    0.2278   -0.1259 H   0  0  0  0  0  0  0  0  0  0  0  0
    0.0000    0.0000    0.0000 C   0  0  0  0  0  0  0  0  0  0  0  0
   -0.0134   -0.5842   -0.8164 H   0  0  0  0  0  0  0  0  0  0  0  0
   -0.0132   -0.5845    0.8165 H   0  0  0  0  0  0  0  0  0  0  0  0
   -1.2415    0.8451    0.0000 N   0  0  0  0  0  4  0  0  0  0  0  0
   -1.4182    1.1627   -0.9289 H   0  0  0  0  0  0  0  0  0  0  0  0
   -2.0084    0.2950    0.3236 H   0  0  0  0  0  0  0  0  0  0  0  0
   -1.1034    1.6260    0.6050 H   0  0  0  0  0  0  0  0  0  0  0  0
   -1.2992   -2.5470    2.7974 C   0  0  0  0  0  0  0  0  0  0  0  0
   -0.3151   -2.8888    2.7391 H   0  0  0  0  0  0  0  0  0  0  0  0
   -1.6708   -2.7373    1.8416 H   0  0  0  0  0  0  0  0  0  0  0  0
   -1.8349   -3.1844    3.5008 H   0  0  0  0  0  0  0  0  0  0  0  0
   -1.3439   -0.8028    3.1580 S   0  0  0  0  0  0  0  0  0  0  0  0
   -0.1595   -0.6224    4.4949 C   0  0  0  0  0  0  0  0  0  0  0  0
    0.2320    0.2975    4.4718 H   0  0  0  0  0  0  0  0  0  0  0  0
   -0.6208   -0.7666    5.3709 H   0  0  0  0  0  0  0  0  0  0  0  0
    0.5700   -1.2979    4.3873 H   0  0  0  0  0  0  0  0  0  0  0  0
  1  5  1  0
  5  8  1  0
  1  2  1  0
  1  3  1  0
  1  4  1  0
  5  6  1  0
  5  7  1  0
  8  9  1  0
  8 10  1  0
  8 11  1  0
 12 16  1  0
 16 17  1  0
 12 13  1  0
 12 14  1  0
 12 15  1  0
 17 18  1  0
 17 19  1  0
 17 20  1  0
M  CHG  1   8   1
M  END
>  <PDB_ID>  (568) 
pdb2w2i

>  <RESIDUE_NAME>  (568) 
LYS   MET

>  <FRAG_NAME>  (568) 
ETAM   MSM

>  <FRAG_ATOM_NUM>  (568) 
fragi: 11  fragj: 9

>  <atom.prop.CHAIN_ID>  (568) 
A A A A A A A A A A A Z Z Z Z Z Z Z Z Z

>  <atom.prop.IS_HEAVY_ATOM>  (568) 
1 0 0 0 1 0 0 1 0 0 0 1 0 0 0 1 1 0 0 0

>  <DIFUSE_FUNC_ATOM>  (568) 
n/a

>  <FINAL_SINGLE_POINT_ENERGY>  (568) 
0

>  <NONCOV_INTER_ENERGY_QM>  (568) 
0

>  <FF_Energy>  (568) 
-4.44

>  <QM_Energy>  (568) 
-11.53

>  <source>  (568) 
ETAM_MSM

>  <Index>  (568) 
3331

$$$$
ETAM-pdb2w2i-C-LYS-47:MSM-pdb2w2i-C-MET-261
     RDKit          3D

 20 18  0  0  0  0  0  0  0  0999 V2000
    1.2380    0.8572    0.0000 C   0  0  0  0  0  0  0  0  0  0  0  0
    1.2947    1.3450    0.8697 H   0  0  0  0  0  0  0  0  0  0  0  0
    1.1783    1.5114   -0.7511 H   0  0  0  0  0  0  0  0  0  0  0  0
    2.1439    0.2641   -0.1255 H   0  0  0  0  0  0  0  0  0  0  0  0
    0.0000    0.0000    0.0000 C   0  0  0  0  0  0  0  0  0  0  0  0
    0.0048   -0.5875   -0.8164 H   0  0  0  0  0  0  0  0  0  0  0  0
    0.0045   -0.5881    0.8162 H   0  0  0  0  0  0  0  0  0  0  0  0
   -1.2380    0.8168    0.0000 N   0  0  0  0  0  4  0  0  0  0  0  0
   -1.5344    0.9738    0.9422 H   0  0  0  0  0  0  0  0  0  0  0  0
   -1.0582    1.6958   -0.4436 H   0  0  0  0  0  0  0  0  0  0  0  0
   -1.9582    0.3327   -0.4987 H   0  0  0  0  0  0  0  0  0  0  0  0
   -1.2778   -2.5585    2.8066 C   0  0  0  0  0  0  0  0  0  0  0  0
   -0.3038   -2.9043    2.7406 H   0  0  0  0  0  0  0  0  0  0  0  0
   -1.6637   -2.7117    1.8577 H   0  0  0  0  0  0  0  0  0  0  0  0
   -1.8193   -3.2006    3.5013 H   0  0  0  0  0  0  0  0  0  0  0  0
   -1.3160   -0.8371    3.2418 S   0  0  0  0  0  0  0  0  0  0  0  0
   -0.1376   -0.6797    4.6011 C   0  0  0  0  0  0  0  0  0  0  0  0
   -0.6374   -0.6013    5.4618 H   0  0  0  0  0  0  0  0  0  0  0  0
    0.4481   -1.4886    4.6233 H   0  0  0  0  0  0  0  0  0  0  0  0
    0.4198    0.1367    4.4600 H   0  0  0  0  0  0  0  0  0  0  0  0
  1  5  1  0
  5  8  1  0
  1  2  1  0
  1  3  1  0
  1  4  1  0
  5  6  1  0
  5  7  1  0
  8  9  1  0
  8 10  1  0
  8 11  1  0
 12 16  1  0
 16 17  1  0
 12 13  1  0
 12 14  1  0
 12 15  1  0
 17 18  1  0
 17 19  1  0
 17 20  1  0
M  CHG  1   8   1
M  END
>  <PDB_ID>  (569) 
pdb2w2i

>  <RESIDUE_NAME>  (569) 
LYS   MET

>  <FRAG_NAME>  (569) 
ETAM   MSM

>  <FRAG_ATOM_NUM>  (569) 
fragi: 11  fragj: 9

>  <atom.prop.CHAIN_ID>  (569) 
A A A A A A A A A A A Z Z Z Z Z Z Z Z Z

>  <atom.prop.IS_HEAVY_ATOM>  (569) 
1 0 0 0 1 0 0 1 0 0 0 1 0 0 0 1 1 0 0 0

>  <DIFUSE_FUNC_ATOM>  (569) 
n/a

>  <FINAL_SINGLE_POINT_ENERGY>  (569) 
0

>  <NONCOV_INTER_ENERGY_QM>  (569) 
0

>  <FF_Energy>  (569) 
-4.74

>  <QM_Energy>  (569) 
-12.72

>  <source>  (569) 
ETAM_MSM

>  <Index>  (569) 
3332

$$$$
ETAM-pdb2w37-B-LYS-60:MSM-pdb2w37-B-MET-241
     RDKit          3D

 20 18  0  0  0  0  0  0  0  0999 V2000
    1.2654    0.8848    0.0000 C   0  0  0  0  0  0  0  0  0  0  0  0
    1.3076    1.3673    0.8701 H   0  0  0  0  0  0  0  0  0  0  0  0
    1.1907    1.5331   -0.7512 H   0  0  0  0  0  0  0  0  0  0  0  0
    2.1815    0.3074   -0.1240 H   0  0  0  0  0  0  0  0  0  0  0  0
    0.0000    0.0000    0.0000 C   0  0  0  0  0  0  0  0  0  0  0  0
    0.0138   -0.5770   -0.8164 H   0  0  0  0  0  0  0  0  0  0  0  0
    0.0128   -0.5772    0.8160 H   0  0  0  0  0  0  0  0  0  0  0  0
   -1.2654    0.8229    0.0000 N   0  0  0  0  0  4  0  0  0  0  0  0
   -1.9145    0.4144   -0.6362 H   0  0  0  0  0  0  0  0  0  0  0  0
   -1.6453    0.8278    0.9213 H   0  0  0  0  0  0  0  0  0  0  0  0
   -1.0445    1.7515   -0.2849 H   0  0  0  0  0  0  0  0  0  0  0  0
   -4.7162    0.4919    4.0338 C   0  0  0  0  0  0  0  0  0  0  0  0
   -5.7275    0.3551    3.9042 H   0  0  0  0  0  0  0  0  0  0  0  0
   -4.6231    1.4408    4.4221 H   0  0  0  0  0  0  0  0  0  0  0  0
   -4.3812   -0.2133    4.7945 H   0  0  0  0  0  0  0  0  0  0  0  0
   -3.8371    0.3537    2.4501 S   0  0  0  0  0  0  0  0  0  0  0  0
   -5.0290    1.0501    1.2961 C   0  0  0  0  0  0  0  0  0  0  0  0
   -4.5788    1.7402    0.7304 H   0  0  0  0  0  0  0  0  0  0  0  0
   -5.3900    0.3229    0.7132 H   0  0  0  0  0  0  0  0  0  0  0  0
   -5.7775    1.4726    1.8068 H   0  0  0  0  0  0  0  0  0  0  0  0
  1  5  1  0
  5  8  1  0
  1  2  1  0
  1  3  1  0
  1  4  1  0
  5  6  1  0
  5  7  1  0
  8  9  1  0
  8 10  1  0
  8 11  1  0
 12 16  1  0
 16 17  1  0
 12 13  1  0
 12 14  1  0
 12 15  1  0
 17 18  1  0
 17 19  1  0
 17 20  1  0
M  CHG  1   8   1
M  END
>  <PDB_ID>  (570) 
pdb2w37

>  <RESIDUE_NAME>  (570) 
LYS   MET

>  <FRAG_NAME>  (570) 
ETAM   MSM

>  <FRAG_ATOM_NUM>  (570) 
fragi: 11  fragj: 9

>  <atom.prop.CHAIN_ID>  (570) 
A A A A A A A A A A A Z Z Z Z Z Z Z Z Z

>  <atom.prop.IS_HEAVY_ATOM>  (570) 
1 0 0 0 1 0 0 1 0 0 0 1 0 0 0 1 1 0 0 0

>  <DIFUSE_FUNC_ATOM>  (570) 
n/a

>  <FINAL_SINGLE_POINT_ENERGY>  (570) 
0

>  <NONCOV_INTER_ENERGY_QM>  (570) 
0

>  <FF_Energy>  (570) 
-4.83

>  <QM_Energy>  (570) 
-11.3

>  <source>  (570) 
ETAM_MSM

>  <Index>  (570) 
3342

$$$$
ETAM-pdb1pq0-A-LYS-87:MSM-pdb1pq0-A-MET-83
     RDKit          3D

 20 18  0  0  0  0  0  0  0  0999 V2000
    1.2344    0.8773    0.0000 C   0  0  0  0  0  0  0  0  0  0  0  0
    1.1253    1.5827    0.6935 H   0  0  0  0  0  0  0  0  0  0  0  0
    1.3323    1.2905   -0.8996 H   0  0  0  0  0  0  0  0  0  0  0  0
    2.1313    0.2997    0.2235 H   0  0  0  0  0  0  0  0  0  0  0  0
    0.0000    0.0000    0.0000 C   0  0  0  0  0  0  0  0  0  0  0  0
    0.0058   -0.5751   -0.8164 H   0  0  0  0  0  0  0  0  0  0  0  0
    0.0049   -0.5752    0.8162 H   0  0  0  0  0  0  0  0  0  0  0  0
   -1.2344    0.8363   -0.0000 N   0  0  0  0  0  4  0  0  0  0  0  0
   -0.9873    1.7888   -0.1721 H   0  0  0  0  0  0  0  0  0  0  0  0
   -1.8514    0.5147   -0.7168 H   0  0  0  0  0  0  0  0  0  0  0  0
   -1.6846    0.7617    0.8888 H   0  0  0  0  0  0  0  0  0  0  0  0
   -0.4874   -1.0516    3.0514 C   0  0  0  0  0  0  0  0  0  0  0  0
   -1.3949   -0.8525    2.5992 H   0  0  0  0  0  0  0  0  0  0  0  0
    0.1931   -0.4797    2.5241 H   0  0  0  0  0  0  0  0  0  0  0  0
   -0.5279   -0.6757    4.0737 H   0  0  0  0  0  0  0  0  0  0  0  0
   -0.0810   -2.8078    2.9176 S   0  0  0  0  0  0  0  0  0  0  0  0
    1.3970   -2.7435    1.9774 C   0  0  0  0  0  0  0  0  0  0  0  0
    1.5047   -1.8396    1.5460 H   0  0  0  0  0  0  0  0  0  0  0  0
    2.1986   -2.9106    2.5650 H   0  0  0  0  0  0  0  0  0  0  0  0
    1.3856   -3.4412    1.2504 H   0  0  0  0  0  0  0  0  0  0  0  0
  1  5  1  0
  5  8  1  0
  1  2  1  0
  1  3  1  0
  1  4  1  0
  5  6  1  0
  5  7  1  0
  8  9  1  0
  8 10  1  0
  8 11  1  0
 12 16  1  0
 16 17  1  0
 12 13  1  0
 12 14  1  0
 12 15  1  0
 17 18  1  0
 17 19  1  0
 17 20  1  0
M  CHG  1   8   1
M  END
>  <PDB_ID>  (571) 
pdb1pq0

>  <RESIDUE_NAME>  (571) 
LYS   MET

>  <FRAG_NAME>  (571) 
ETAM   MSM

>  <FRAG_ATOM_NUM>  (571) 
fragi: 11  fragj: 9

>  <atom.prop.CHAIN_ID>  (571) 
A A A A A A A A A A A Z Z Z Z Z Z Z Z Z

>  <atom.prop.IS_HEAVY_ATOM>  (571) 
1 0 0 0 1 0 0 1 0 0 0 1 0 0 0 1 1 0 0 0

>  <DIFUSE_FUNC_ATOM>  (571) 
n/a

>  <FINAL_SINGLE_POINT_ENERGY>  (571) 
0

>  <NONCOV_INTER_ENERGY_QM>  (571) 
0

>  <FF_Energy>  (571) 
10.28

>  <QM_Energy>  (571) 
1.82

>  <source>  (571) 
ETAM_MSM

>  <Index>  (571) 
3346

$$$$
ETAM-pdb1pr9-B-LYS-161:MSM-pdb1pr9-B-MET-158
     RDKit          3D

 20 18  0  0  0  0  0  0  0  0999 V2000
    1.2521    0.8834   -0.0000 C   0  0  0  0  0  0  0  0  0  0  0  0
    0.9949    1.7910    0.2693 H   0  0  0  0  0  0  0  0  0  0  0  0
    1.6559    0.8540   -0.8938 H   0  0  0  0  0  0  0  0  0  0  0  0
    1.9603    0.4835    0.7258 H   0  0  0  0  0  0  0  0  0  0  0  0
    0.0000    0.0000    0.0000 C   0  0  0  0  0  0  0  0  0  0  0  0
    0.0163   -0.5798   -0.8161 H   0  0  0  0  0  0  0  0  0  0  0  0
    0.0162   -0.5796    0.8165 H   0  0  0  0  0  0  0  0  0  0  0  0
   -1.2521    0.8145    0.0000 N   0  0  0  0  0  4  0  0  0  0  0  0
   -1.0315    1.7562   -0.2481 H   0  0  0  0  0  0  0  0  0  0  0  0
   -1.8928    0.4327   -0.6636 H   0  0  0  0  0  0  0  0  0  0  0  0
   -1.6584    0.7923    0.9118 H   0  0  0  0  0  0  0  0  0  0  0  0
    0.4633    5.8882    1.4430 C   0  0  0  0  0  0  0  0  0  0  0  0
   -0.0601    6.7321    1.1592 H   0  0  0  0  0  0  0  0  0  0  0  0
    1.3959    6.2430    1.7114 H   0  0  0  0  0  0  0  0  0  0  0  0
   -0.0156    5.4565    2.3219 H   0  0  0  0  0  0  0  0  0  0  0  0
    0.6092    4.7441    0.0450 S   0  0  0  0  0  0  0  0  0  0  0  0
    2.3481    5.0249   -0.3098 C   0  0  0  0  0  0  0  0  0  0  0  0
    2.5223    6.0088   -0.3625 H   0  0  0  0  0  0  0  0  0  0  0  0
    2.9049    4.6257    0.4187 H   0  0  0  0  0  0  0  0  0  0  0  0
    2.5835    4.5968   -1.1820 H   0  0  0  0  0  0  0  0  0  0  0  0
  1  5  1  0
  5  8  1  0
  1  2  1  0
  1  3  1  0
  1  4  1  0
  5  6  1  0
  5  7  1  0
  8  9  1  0
  8 10  1  0
  8 11  1  0
 12 16  1  0
 16 17  1  0
 12 13  1  0
 12 14  1  0
 12 15  1  0
 17 18  1  0
 17 19  1  0
 17 20  1  0
M  CHG  1   8   1
M  END
>  <PDB_ID>  (572) 
pdb1pr9

>  <RESIDUE_NAME>  (572) 
LYS   MET

>  <FRAG_NAME>  (572) 
ETAM   MSM

>  <FRAG_ATOM_NUM>  (572) 
fragi: 11  fragj: 9

>  <atom.prop.CHAIN_ID>  (572) 
A A A A A A A A A A A Z Z Z Z Z Z Z Z Z

>  <atom.prop.IS_HEAVY_ATOM>  (572) 
1 0 0 0 1 0 0 1 0 0 0 1 0 0 0 1 1 0 0 0

>  <DIFUSE_FUNC_ATOM>  (572) 
n/a

>  <FINAL_SINGLE_POINT_ENERGY>  (572) 
0

>  <NONCOV_INTER_ENERGY_QM>  (572) 
0

>  <FF_Energy>  (572) 
-4.28

>  <QM_Energy>  (572) 
-9.38

>  <source>  (572) 
ETAM_MSM

>  <Index>  (572) 
3348

$$$$
ETAM-pdb2vws-C-LYS-80:MSM-pdb2vws-B-MET-98
     RDKit          3D

 20 18  0  0  0  0  0  0  0  0999 V2000
    1.2376    0.8742   -0.0000 C   0  0  0  0  0  0  0  0  0  0  0  0
    1.3516    1.2730    0.9077 H   0  0  0  0  0  0  0  0  0  0  0  0
    1.1202    1.5990   -0.6753 H   0  0  0  0  0  0  0  0  0  0  0  0
    2.1415    0.3168   -0.2457 H   0  0  0  0  0  0  0  0  0  0  0  0
    0.0000    0.0000    0.0000 C   0  0  0  0  0  0  0  0  0  0  0  0
    0.0057   -0.5766   -0.8159 H   0  0  0  0  0  0  0  0  0  0  0  0
    0.0053   -0.5773    0.8167 H   0  0  0  0  0  0  0  0  0  0  0  0
   -1.2376    0.8332    0.0000 N   0  0  0  0  0  4  0  0  0  0  0  0
   -1.4114    1.1655    0.9261 H   0  0  0  0  0  0  0  0  0  0  0  0
   -1.1127    1.6089   -0.6172 H   0  0  0  0  0  0  0  0  0  0  0  0
   -2.0087    0.2782   -0.3082 H   0  0  0  0  0  0  0  0  0  0  0  0
   -4.0704   -1.2548   -3.5026 C   0  0  0  0  0  0  0  0  0  0  0  0
   -4.4092   -1.6714   -2.6357 H   0  0  0  0  0  0  0  0  0  0  0  0
   -4.2772   -1.9241   -4.2441 H   0  0  0  0  0  0  0  0  0  0  0  0
   -4.6152   -0.3299   -3.6918 H   0  0  0  0  0  0  0  0  0  0  0  0
   -2.2591   -0.9777   -3.3974 S   0  0  0  0  0  0  0  0  0  0  0  0
   -1.7248   -0.6575   -5.1173 C   0  0  0  0  0  0  0  0  0  0  0  0
   -1.6267   -1.5300   -5.5859 H   0  0  0  0  0  0  0  0  0  0  0  0
   -2.4164   -0.1002   -5.5658 H   0  0  0  0  0  0  0  0  0  0  0  0
   -0.8538   -0.1766   -5.0942 H   0  0  0  0  0  0  0  0  0  0  0  0
  1  5  1  0
  5  8  1  0
  1  2  1  0
  1  3  1  0
  1  4  1  0
  5  6  1  0
  5  7  1  0
  8  9  1  0
  8 10  1  0
  8 11  1  0
 12 16  1  0
 16 17  1  0
 12 13  1  0
 12 14  1  0
 12 15  1  0
 17 18  1  0
 17 19  1  0
 17 20  1  0
M  CHG  1   8   1
M  END
>  <PDB_ID>  (573) 
pdb2vws

>  <RESIDUE_NAME>  (573) 
LYS   MET

>  <FRAG_NAME>  (573) 
ETAM   MSM

>  <FRAG_ATOM_NUM>  (573) 
fragi: 11  fragj: 9

>  <atom.prop.CHAIN_ID>  (573) 
A A A A A A A A A A A Z Z Z Z Z Z Z Z Z

>  <atom.prop.IS_HEAVY_ATOM>  (573) 
1 0 0 0 1 0 0 1 0 0 0 1 0 0 0 1 1 0 0 0

>  <DIFUSE_FUNC_ATOM>  (573) 
n/a

>  <FINAL_SINGLE_POINT_ENERGY>  (573) 
0

>  <NONCOV_INTER_ENERGY_QM>  (573) 
0

>  <FF_Energy>  (573) 
-4.46

>  <QM_Energy>  (573) 
-10.7

>  <source>  (573) 
ETAM_MSM

>  <Index>  (573) 
3349

$$$$
ETAM-pdb1puf-A-LYS-261:MSM-pdb1puf-A-MET-258
     RDKit          3D

 20 18  0  0  0  0  0  0  0  0999 V2000
    1.2719    0.8673   -0.0000 C   0  0  0  0  0  0  0  0  0  0  0  0
    1.1751    1.5666    0.6976 H   0  0  0  0  0  0  0  0  0  0  0  0
    1.3721    1.2777   -0.8980 H   0  0  0  0  0  0  0  0  0  0  0  0
    2.1643    0.2803    0.2169 H   0  0  0  0  0  0  0  0  0  0  0  0
    0.0000    0.0000    0.0000 C   0  0  0  0  0  0  0  0  0  0  0  0
    0.0194   -0.5939   -0.8165 H   0  0  0  0  0  0  0  0  0  0  0  0
    0.0193   -0.5942    0.8162 H   0  0  0  0  0  0  0  0  0  0  0  0
   -1.2719    0.7891   -0.0000 N   0  0  0  0  0  4  0  0  0  0  0  0
   -2.0406    0.1708    0.1519 H   0  0  0  0  0  0  0  0  0  0  0  0
   -1.2347    1.4688    0.7304 H   0  0  0  0  0  0  0  0  0  0  0  0
   -1.3746    1.2447   -0.8821 H   0  0  0  0  0  0  0  0  0  0  0  0
   -1.9710   -2.3131   -4.0032 C   0  0  0  0  0  0  0  0  0  0  0  0
   -1.6764   -2.2723   -4.9737 H   0  0  0  0  0  0  0  0  0  0  0  0
   -2.9657   -2.5139   -4.0023 H   0  0  0  0  0  0  0  0  0  0  0  0
   -1.4363   -3.1147   -3.4936 H   0  0  0  0  0  0  0  0  0  0  0  0
   -1.6847   -0.6283   -3.2037 S   0  0  0  0  0  0  0  0  0  0  0  0
   -0.4046    0.0325   -4.2135 C   0  0  0  0  0  0  0  0  0  0  0  0
   -0.2663    1.0088   -4.0126 H   0  0  0  0  0  0  0  0  0  0  0  0
    0.4619   -0.4528   -4.0464 H   0  0  0  0  0  0  0  0  0  0  0  0
   -0.6403   -0.0619   -5.1877 H   0  0  0  0  0  0  0  0  0  0  0  0
  1  5  1  0
  5  8  1  0
  1  2  1  0
  1  3  1  0
  1  4  1  0
  5  6  1  0
  5  7  1  0
  8  9  1  0
  8 10  1  0
  8 11  1  0
 12 16  1  0
 16 17  1  0
 12 13  1  0
 12 14  1  0
 12 15  1  0
 17 18  1  0
 17 19  1  0
 17 20  1  0
M  CHG  1   8   1
M  END
>  <PDB_ID>  (574) 
pdb1puf

>  <RESIDUE_NAME>  (574) 
LYS   MET

>  <FRAG_NAME>  (574) 
ETAM   MSM

>  <FRAG_ATOM_NUM>  (574) 
fragi: 11  fragj: 9

>  <atom.prop.CHAIN_ID>  (574) 
A A A A A A A A A A A Z Z Z Z Z Z Z Z Z

>  <atom.prop.IS_HEAVY_ATOM>  (574) 
1 0 0 0 1 0 0 1 0 0 0 1 0 0 0 1 1 0 0 0

>  <DIFUSE_FUNC_ATOM>  (574) 
n/a

>  <FINAL_SINGLE_POINT_ENERGY>  (574) 
0

>  <NONCOV_INTER_ENERGY_QM>  (574) 
0

>  <FF_Energy>  (574) 
-5.39

>  <QM_Energy>  (574) 
-11.91

>  <source>  (574) 
ETAM_MSM

>  <Index>  (574) 
3358

$$$$
ETAM-pdb2w6a-A-LYS-448:MSM-pdb2w6a-B-MET-453
     RDKit          3D

 20 18  0  0  0  0  0  0  0  0999 V2000
    1.2601    0.8752   -0.0000 C   0  0  0  0  0  0  0  0  0  0  0  0
    1.1913    1.5183    0.7489 H   0  0  0  0  0  0  0  0  0  0  0  0
    1.3134    1.3425   -0.8702 H   0  0  0  0  0  0  0  0  0  0  0  0
    2.1517    0.2627    0.1345 H   0  0  0  0  0  0  0  0  0  0  0  0
    0.0000    0.0000    0.0000 C   0  0  0  0  0  0  0  0  0  0  0  0
    0.0158   -0.5853   -0.8165 H   0  0  0  0  0  0  0  0  0  0  0  0
    0.0152   -0.5854    0.8168 H   0  0  0  0  0  0  0  0  0  0  0  0
   -1.2601    0.8077   -0.0000 N   0  0  0  0  0  4  0  0  0  0  0  0
   -1.5809    0.9139    0.9393 H   0  0  0  0  0  0  0  0  0  0  0  0
   -1.0736    1.7046   -0.3963 H   0  0  0  0  0  0  0  0  0  0  0  0
   -1.9526    0.3351   -0.5422 H   0  0  0  0  0  0  0  0  0  0  0  0
   -1.6300   -3.2993   -2.8659 C   0  0  0  0  0  0  0  0  0  0  0  0
   -1.5576   -3.7949   -1.9539 H   0  0  0  0  0  0  0  0  0  0  0  0
   -0.6363   -3.1694   -3.1479 H   0  0  0  0  0  0  0  0  0  0  0  0
   -2.0963   -3.9780   -3.5801 H   0  0  0  0  0  0  0  0  0  0  0  0
   -2.4342   -1.6645   -2.6304 S   0  0  0  0  0  0  0  0  0  0  0  0
   -4.0173   -2.2166   -1.9465 C   0  0  0  0  0  0  0  0  0  0  0  0
   -4.5684   -1.4175   -1.7147 H   0  0  0  0  0  0  0  0  0  0  0  0
   -4.4912   -2.7700   -2.6276 H   0  0  0  0  0  0  0  0  0  0  0  0
   -3.8470   -2.7602   -1.1268 H   0  0  0  0  0  0  0  0  0  0  0  0
  1  5  1  0
  5  8  1  0
  1  2  1  0
  1  3  1  0
  1  4  1  0
  5  6  1  0
  5  7  1  0
  8  9  1  0
  8 10  1  0
  8 11  1  0
 12 16  1  0
 16 17  1  0
 12 13  1  0
 12 14  1  0
 12 15  1  0
 17 18  1  0
 17 19  1  0
 17 20  1  0
M  CHG  1   8   1
M  END
>  <PDB_ID>  (575) 
pdb2w6a

>  <RESIDUE_NAME>  (575) 
LYS   MET

>  <FRAG_NAME>  (575) 
ETAM   MSM

>  <FRAG_ATOM_NUM>  (575) 
fragi: 11  fragj: 9

>  <atom.prop.CHAIN_ID>  (575) 
A A A A A A A A A A A Z Z Z Z Z Z Z Z Z

>  <atom.prop.IS_HEAVY_ATOM>  (575) 
1 0 0 0 1 0 0 1 0 0 0 1 0 0 0 1 1 0 0 0

>  <DIFUSE_FUNC_ATOM>  (575) 
n/a

>  <FINAL_SINGLE_POINT_ENERGY>  (575) 
0

>  <NONCOV_INTER_ENERGY_QM>  (575) 
0

>  <FF_Energy>  (575) 
-4.77

>  <QM_Energy>  (575) 
-11.86

>  <source>  (575) 
ETAM_MSM

>  <Index>  (575) 
3368

$$$$
ETAM-pdb1px5-B-LYS-348:MSM-pdb1px5-B-MET-345
     RDKit          3D

 20 18  0  0  0  0  0  0  0  0999 V2000
    1.2506    0.8672    0.0000 C   0  0  0  0  0  0  0  0  0  0  0  0
    1.2391    1.4395    0.8090 H   0  0  0  0  0  0  0  0  0  0  0  0
    1.2539    1.4183   -0.8242 H   0  0  0  0  0  0  0  0  0  0  0  0
    2.1485    0.2495    0.0168 H   0  0  0  0  0  0  0  0  0  0  0  0
    0.0000    0.0000    0.0000 C   0  0  0  0  0  0  0  0  0  0  0  0
    0.0124   -0.5873   -0.8161 H   0  0  0  0  0  0  0  0  0  0  0  0
    0.0121   -0.5872    0.8167 H   0  0  0  0  0  0  0  0  0  0  0  0
   -1.2506    0.8085   -0.0000 N   0  0  0  0  0  4  0  0  0  0  0  0
   -1.7026    0.7199    0.8872 H   0  0  0  0  0  0  0  0  0  0  0  0
   -1.0246    1.7677   -0.1669 H   0  0  0  0  0  0  0  0  0  0  0  0
   -1.8589    0.4773   -0.7206 H   0  0  0  0  0  0  0  0  0  0  0  0
   -0.0101    2.2711    5.0524 C   0  0  0  0  0  0  0  0  0  0  0  0
   -0.4770    1.5574    5.6228 H   0  0  0  0  0  0  0  0  0  0  0  0
   -0.2515    3.1689    5.4887 H   0  0  0  0  0  0  0  0  0  0  0  0
    1.0670    2.1262    5.1356 H   0  0  0  0  0  0  0  0  0  0  0  0
   -0.6124    2.2128    3.3406 S   0  0  0  0  0  0  0  0  0  0  0  0
   -0.8482    0.4539    3.1214 C   0  0  0  0  0  0  0  0  0  0  0  0
   -1.0357    0.2562    2.1576 H   0  0  0  0  0  0  0  0  0  0  0  0
   -0.0209   -0.0352    3.4046 H   0  0  0  0  0  0  0  0  0  0  0  0
   -1.6214    0.1452    3.6784 H   0  0  0  0  0  0  0  0  0  0  0  0
  1  5  1  0
  5  8  1  0
  1  2  1  0
  1  3  1  0
  1  4  1  0
  5  6  1  0
  5  7  1  0
  8  9  1  0
  8 10  1  0
  8 11  1  0
 12 16  1  0
 16 17  1  0
 12 13  1  0
 12 14  1  0
 12 15  1  0
 17 18  1  0
 17 19  1  0
 17 20  1  0
M  CHG  1   8   1
M  END
>  <PDB_ID>  (576) 
pdb1px5

>  <RESIDUE_NAME>  (576) 
LYS   MET

>  <FRAG_NAME>  (576) 
ETAM   MSM

>  <FRAG_ATOM_NUM>  (576) 
fragi: 11  fragj: 9

>  <atom.prop.CHAIN_ID>  (576) 
A A A A A A A A A A A Z Z Z Z Z Z Z Z Z

>  <atom.prop.IS_HEAVY_ATOM>  (576) 
1 0 0 0 1 0 0 1 0 0 0 1 0 0 0 1 1 0 0 0

>  <DIFUSE_FUNC_ATOM>  (576) 
n/a

>  <FINAL_SINGLE_POINT_ENERGY>  (576) 
0

>  <NONCOV_INTER_ENERGY_QM>  (576) 
0

>  <FF_Energy>  (576) 
5.53

>  <QM_Energy>  (576) 
-1.0

>  <source>  (576) 
ETAM_MSM

>  <Index>  (576) 
3375

$$$$
ETAM-pdb1pwx-C-LYS-161:MSM-pdb1pwx-B-MET-245
     RDKit          3D

 20 18  0  0  0  0  0  0  0  0999 V2000
    1.2860    0.8655    0.0000 C   0  0  0  0  0  0  0  0  0  0  0  0
    2.0745    0.2516    0.0491 H   0  0  0  0  0  0  0  0  0  0  0  0
    1.2673    1.4499    0.8109 H   0  0  0  0  0  0  0  0  0  0  0  0
    1.3988    1.4998   -0.8793 H   0  0  0  0  0  0  0  0  0  0  0  0
    0.0000    0.0000    0.0000 C   0  0  0  0  0  0  0  0  0  0  0  0
    0.0299   -0.6037   -0.8164 H   0  0  0  0  0  0  0  0  0  0  0  0
    0.0301   -0.6044    0.8162 H   0  0  0  0  0  0  0  0  0  0  0  0
   -1.2860    0.7593    0.0000 N   0  0  0  0  0  4  0  0  0  0  0  0
   -1.1104    1.7027   -0.2771 H   0  0  0  0  0  0  0  0  0  0  0  0
   -1.9208    0.3315   -0.6420 H   0  0  0  0  0  0  0  0  0  0  0  0
   -1.6766    0.7448    0.9189 H   0  0  0  0  0  0  0  0  0  0  0  0
    3.3023   -2.6497    2.4183 C   0  0  0  0  0  0  0  0  0  0  0  0
    2.5791   -2.4751    3.1233 H   0  0  0  0  0  0  0  0  0  0  0  0
    4.1534   -2.8701    2.9449 H   0  0  0  0  0  0  0  0  0  0  0  0
    3.0157   -3.5306    1.8438 H   0  0  0  0  0  0  0  0  0  0  0  0
    3.5468   -1.2034    1.3790 S   0  0  0  0  0  0  0  0  0  0  0  0
    5.1313   -1.6094    0.5867 C   0  0  0  0  0  0  0  0  0  0  0  0
    5.8515   -1.5847    1.2746 H   0  0  0  0  0  0  0  0  0  0  0  0
    5.0691   -2.5216    0.1900 H   0  0  0  0  0  0  0  0  0  0  0  0
    5.3164   -0.9381   -0.1269 H   0  0  0  0  0  0  0  0  0  0  0  0
  1  5  1  0
  5  8  1  0
  1  2  1  0
  1  3  1  0
  1  4  1  0
  5  6  1  0
  5  7  1  0
  8  9  1  0
  8 10  1  0
  8 11  1  0
 12 16  1  0
 16 17  1  0
 12 13  1  0
 12 14  1  0
 12 15  1  0
 17 18  1  0
 17 19  1  0
 17 20  1  0
M  CHG  1   8   1
M  END
>  <PDB_ID>  (577) 
pdb1pwx

>  <RESIDUE_NAME>  (577) 
LYS   MET

>  <FRAG_NAME>  (577) 
ETAM   MSM

>  <FRAG_ATOM_NUM>  (577) 
fragi: 11  fragj: 9

>  <atom.prop.CHAIN_ID>  (577) 
A A A A A A A A A A A Z Z Z Z Z Z Z Z Z

>  <atom.prop.IS_HEAVY_ATOM>  (577) 
1 0 0 0 1 0 0 1 0 0 0 1 0 0 0 1 1 0 0 0

>  <DIFUSE_FUNC_ATOM>  (577) 
n/a

>  <FINAL_SINGLE_POINT_ENERGY>  (577) 
0

>  <NONCOV_INTER_ENERGY_QM>  (577) 
0

>  <FF_Energy>  (577) 
-0.05

>  <QM_Energy>  (577) 
-5.48

>  <source>  (577) 
ETAM_MSM

>  <Index>  (577) 
3376

$$$$
ETAM-pdb1px8-B-LYS-12:MSM-pdb1px8-B-MET-361
     RDKit          3D

 20 18  0  0  0  0  0  0  0  0999 V2000
    1.2680    0.8624    0.0000 C   0  0  0  0  0  0  0  0  0  0  0  0
    2.0580    0.2606   -0.0188 H   0  0  0  0  0  0  0  0  0  0  0  0
    1.2704    1.4185    0.8226 H   0  0  0  0  0  0  0  0  0  0  0  0
    1.3083    1.5201   -0.8683 H   0  0  0  0  0  0  0  0  0  0  0  0
    0.0000    0.0000    0.0000 C   0  0  0  0  0  0  0  0  0  0  0  0
    0.0146   -0.5921   -0.8160 H   0  0  0  0  0  0  0  0  0  0  0  0
    0.0141   -0.5931    0.8167 H   0  0  0  0  0  0  0  0  0  0  0  0
   -1.2680    0.7974   -0.0000 N   0  0  0  0  0  4  0  0  0  0  0  0
   -1.1358    1.6207   -0.5485 H   0  0  0  0  0  0  0  0  0  0  0  0
   -2.0020    0.2446   -0.3898 H   0  0  0  0  0  0  0  0  0  0  0  0
   -1.4962    1.0486    0.9385 H   0  0  0  0  0  0  0  0  0  0  0  0
    0.3654   -3.5496   -3.6541 C   0  0  0  0  0  0  0  0  0  0  0  0
   -0.4969   -3.1751   -3.2517 H   0  0  0  0  0  0  0  0  0  0  0  0
    0.1448   -4.5053   -3.9459 H   0  0  0  0  0  0  0  0  0  0  0  0
    0.6284   -2.9623   -4.5339 H   0  0  0  0  0  0  0  0  0  0  0  0
    1.6856   -3.5444   -2.4424 S   0  0  0  0  0  0  0  0  0  0  0  0
    0.7984   -3.0381   -0.9968 C   0  0  0  0  0  0  0  0  0  0  0  0
    0.8576   -2.0415   -0.8858 H   0  0  0  0  0  0  0  0  0  0  0  0
   -0.1694   -3.2974   -1.0753 H   0  0  0  0  0  0  0  0  0  0  0  0
    1.1858   -3.4785   -0.1809 H   0  0  0  0  0  0  0  0  0  0  0  0
  1  5  1  0
  5  8  1  0
  1  2  1  0
  1  3  1  0
  1  4  1  0
  5  6  1  0
  5  7  1  0
  8  9  1  0
  8 10  1  0
  8 11  1  0
 12 16  1  0
 16 17  1  0
 12 13  1  0
 12 14  1  0
 12 15  1  0
 17 18  1  0
 17 19  1  0
 17 20  1  0
M  CHG  1   8   1
M  END
>  <PDB_ID>  (578) 
pdb1px8

>  <RESIDUE_NAME>  (578) 
LYS   MET

>  <FRAG_NAME>  (578) 
ETAM   MSM

>  <FRAG_ATOM_NUM>  (578) 
fragi: 11  fragj: 9

>  <atom.prop.CHAIN_ID>  (578) 
A A A A A A A A A A A Z Z Z Z Z Z Z Z Z

>  <atom.prop.IS_HEAVY_ATOM>  (578) 
1 0 0 0 1 0 0 1 0 0 0 1 0 0 0 1 1 0 0 0

>  <DIFUSE_FUNC_ATOM>  (578) 
n/a

>  <FINAL_SINGLE_POINT_ENERGY>  (578) 
0

>  <NONCOV_INTER_ENERGY_QM>  (578) 
0

>  <FF_Energy>  (578) 
10.16

>  <QM_Energy>  (578) 
2.98

>  <source>  (578) 
ETAM_MSM

>  <Index>  (578) 
3379

$$$$
ETAM-pdb1pze-A-LYS-62:MSM-pdb1pze-A-MET-58
     RDKit          3D

 20 18  0  0  0  0  0  0  0  0999 V2000
    1.2909    0.8783   -0.0000 C   0  0  0  0  0  0  0  0  0  0  0  0
    1.3729    1.3003    0.8858 H   0  0  0  0  0  0  0  0  0  0  0  0
    1.2060    1.5439   -0.7200 H   0  0  0  0  0  0  0  0  0  0  0  0
    2.1742    0.2667   -0.1837 H   0  0  0  0  0  0  0  0  0  0  0  0
    0.0000    0.0000    0.0000 C   0  0  0  0  0  0  0  0  0  0  0  0
    0.0137   -0.5825   -0.8162 H   0  0  0  0  0  0  0  0  0  0  0  0
    0.0136   -0.5816    0.8163 H   0  0  0  0  0  0  0  0  0  0  0  0
   -1.2909    0.8137   -0.0000 N   0  0  0  0  0  4  0  0  0  0  0  0
   -1.9980    0.2790   -0.4490 H   0  0  0  0  0  0  0  0  0  0  0  0
   -1.5416    1.0024    0.9425 H   0  0  0  0  0  0  0  0  0  0  0  0
   -1.1273    1.6605   -0.4939 H   0  0  0  0  0  0  0  0  0  0  0  0
   -0.5888   -2.6513    4.2785 C   0  0  0  0  0  0  0  0  0  0  0  0
   -0.2662   -3.3602    4.9772 H   0  0  0  0  0  0  0  0  0  0  0  0
   -1.4544   -2.2687    4.7256 H   0  0  0  0  0  0  0  0  0  0  0  0
    0.1527   -1.8530    4.2433 H   0  0  0  0  0  0  0  0  0  0  0  0
   -1.0207   -3.4853    2.7012 S   0  0  0  0  0  0  0  0  0  0  0  0
   -1.7547   -2.1497    1.7706 C   0  0  0  0  0  0  0  0  0  0  0  0
   -2.3734   -2.5212    1.0750 H   0  0  0  0  0  0  0  0  0  0  0  0
   -2.2724   -1.5529    2.3862 H   0  0  0  0  0  0  0  0  0  0  0  0
   -1.0368   -1.6152    1.3213 H   0  0  0  0  0  0  0  0  0  0  0  0
  1  5  1  0
  5  8  1  0
  1  2  1  0
  1  3  1  0
  1  4  1  0
  5  6  1  0
  5  7  1  0
  8  9  1  0
  8 10  1  0
  8 11  1  0
 12 16  1  0
 16 17  1  0
 12 13  1  0
 12 14  1  0
 12 15  1  0
 17 18  1  0
 17 19  1  0
 17 20  1  0
M  CHG  1   8   1
M  END
>  <PDB_ID>  (579) 
pdb1pze

>  <RESIDUE_NAME>  (579) 
LYS   MET

>  <FRAG_NAME>  (579) 
ETAM   MSM

>  <FRAG_ATOM_NUM>  (579) 
fragi: 11  fragj: 9

>  <atom.prop.CHAIN_ID>  (579) 
A A A A A A A A A A A Z Z Z Z Z Z Z Z Z

>  <atom.prop.IS_HEAVY_ATOM>  (579) 
1 0 0 0 1 0 0 1 0 0 0 1 0 0 0 1 1 0 0 0

>  <DIFUSE_FUNC_ATOM>  (579) 
n/a

>  <FINAL_SINGLE_POINT_ENERGY>  (579) 
0

>  <NONCOV_INTER_ENERGY_QM>  (579) 
0

>  <FF_Energy>  (579) 
22.26

>  <QM_Energy>  (579) 
4.02

>  <source>  (579) 
ETAM_MSM

>  <Index>  (579) 
3393

$$$$
ETAM-pdb1pzl-A-LYS-225:MSM-pdb1pzl-A-MET-228
     RDKit          3D

 20 18  0  0  0  0  0  0  0  0999 V2000
    1.2565    0.8773   -0.0000 C   0  0  0  0  0  0  0  0  0  0  0  0
    1.2274    1.4687   -0.8034 H   0  0  0  0  0  0  0  0  0  0  0  0
    2.0558    0.2822   -0.0461 H   0  0  0  0  0  0  0  0  0  0  0  0
    1.3355    1.5015    0.8901 H   0  0  0  0  0  0  0  0  0  0  0  0
    0.0000    0.0000    0.0000 C   0  0  0  0  0  0  0  0  0  0  0  0
    0.0208   -0.5876   -0.8164 H   0  0  0  0  0  0  0  0  0  0  0  0
    0.0202   -0.5878    0.8159 H   0  0  0  0  0  0  0  0  0  0  0  0
   -1.2565    0.7973    0.0000 N   0  0  0  0  0  4  0  0  0  0  0  0
   -2.0149    0.2211    0.3038 H   0  0  0  0  0  0  0  0  0  0  0  0
   -1.1566    1.5737    0.6216 H   0  0  0  0  0  0  0  0  0  0  0  0
   -1.4380    1.1307   -0.9250 H   0  0  0  0  0  0  0  0  0  0  0  0
    0.6868    4.3853   -3.4603 C   0  0  0  0  0  0  0  0  0  0  0  0
    0.7735    4.7109   -2.5027 H   0  0  0  0  0  0  0  0  0  0  0  0
   -0.1922    4.7445   -3.8186 H   0  0  0  0  0  0  0  0  0  0  0  0
    1.5041    4.8026   -4.0486 H   0  0  0  0  0  0  0  0  0  0  0  0
    0.7132    2.5790   -3.5264 S   0  0  0  0  0  0  0  0  0  0  0  0
    0.0779    2.2913   -5.1749 C   0  0  0  0  0  0  0  0  0  0  0  0
   -0.5900    1.5453   -5.1528 H   0  0  0  0  0  0  0  0  0  0  0  0
   -0.3650    3.1223   -5.5141 H   0  0  0  0  0  0  0  0  0  0  0  0
    0.8304    2.0442   -5.7868 H   0  0  0  0  0  0  0  0  0  0  0  0
  1  5  1  0
  5  8  1  0
  1  2  1  0
  1  3  1  0
  1  4  1  0
  5  6  1  0
  5  7  1  0
  8  9  1  0
  8 10  1  0
  8 11  1  0
 12 16  1  0
 16 17  1  0
 12 13  1  0
 12 14  1  0
 12 15  1  0
 17 18  1  0
 17 19  1  0
 17 20  1  0
M  CHG  1   8   1
M  END
>  <PDB_ID>  (580) 
pdb1pzl

>  <RESIDUE_NAME>  (580) 
LYS   MET

>  <FRAG_NAME>  (580) 
ETAM   MSM

>  <FRAG_ATOM_NUM>  (580) 
fragi: 11  fragj: 9

>  <atom.prop.CHAIN_ID>  (580) 
A A A A A A A A A A A Z Z Z Z Z Z Z Z Z

>  <atom.prop.IS_HEAVY_ATOM>  (580) 
1 0 0 0 1 0 0 1 0 0 0 1 0 0 0 1 1 0 0 0

>  <DIFUSE_FUNC_ATOM>  (580) 
n/a

>  <FINAL_SINGLE_POINT_ENERGY>  (580) 
0

>  <NONCOV_INTER_ENERGY_QM>  (580) 
0

>  <FF_Energy>  (580) 
-3.87

>  <QM_Energy>  (580) 
-9.23

>  <source>  (580) 
ETAM_MSM

>  <Index>  (580) 
3398

$$$$
ETAM-pdb1q1z-A-LYS-202:MSM-pdb1q1z-A-MET-199
     RDKit          3D

 20 18  0  0  0  0  0  0  0  0999 V2000
    1.2473    0.8809   -0.0000 C   0  0  0  0  0  0  0  0  0  0  0  0
    1.1373    1.5803    0.7004 H   0  0  0  0  0  0  0  0  0  0  0  0
    1.3320    1.3051   -0.8978 H   0  0  0  0  0  0  0  0  0  0  0  0
    2.1504    0.3075    0.2095 H   0  0  0  0  0  0  0  0  0  0  0  0
    0.0000    0.0000    0.0000 C   0  0  0  0  0  0  0  0  0  0  0  0
    0.0143   -0.5799   -0.8157 H   0  0  0  0  0  0  0  0  0  0  0  0
    0.0140   -0.5805    0.8163 H   0  0  0  0  0  0  0  0  0  0  0  0
   -1.2473    0.8173   -0.0000 N   0  0  0  0  0  4  0  0  0  0  0  0
   -1.4736    1.0736    0.9387 H   0  0  0  0  0  0  0  0  0  0  0  0
   -1.1022    1.6405   -0.5475 H   0  0  0  0  0  0  0  0  0  0  0  0
   -1.9937    0.2807   -0.3913 H   0  0  0  0  0  0  0  0  0  0  0  0
    0.9447   -1.5392   -4.9646 C   0  0  0  0  0  0  0  0  0  0  0  0
    1.3264   -1.5880   -5.9249 H   0  0  0  0  0  0  0  0  0  0  0  0
    0.1520   -2.2036   -4.9728 H   0  0  0  0  0  0  0  0  0  0  0  0
    1.7012   -1.9134   -4.2749 H   0  0  0  0  0  0  0  0  0  0  0  0
    0.3750    0.1214   -4.5930 S   0  0  0  0  0  0  0  0  0  0  0  0
   -0.5541   -0.1759   -3.1920 C   0  0  0  0  0  0  0  0  0  0  0  0
   -0.7671    0.6822   -2.6912 H   0  0  0  0  0  0  0  0  0  0  0  0
   -1.4410   -0.6186   -3.4140 H   0  0  0  0  0  0  0  0  0  0  0  0
   -0.0710   -0.7877   -2.5408 H   0  0  0  0  0  0  0  0  0  0  0  0
  1  5  1  0
  5  8  1  0
  1  2  1  0
  1  3  1  0
  1  4  1  0
  5  6  1  0
  5  7  1  0
  8  9  1  0
  8 10  1  0
  8 11  1  0
 12 16  1  0
 16 17  1  0
 12 13  1  0
 12 14  1  0
 12 15  1  0
 17 18  1  0
 17 19  1  0
 17 20  1  0
M  CHG  1   8   1
M  END
>  <PDB_ID>  (581) 
pdb1q1z

>  <RESIDUE_NAME>  (581) 
LYS   MET

>  <FRAG_NAME>  (581) 
ETAM   MSM

>  <FRAG_ATOM_NUM>  (581) 
fragi: 11  fragj: 9

>  <atom.prop.CHAIN_ID>  (581) 
A A A A A A A A A A A Z Z Z Z Z Z Z Z Z

>  <atom.prop.IS_HEAVY_ATOM>  (581) 
1 0 0 0 1 0 0 1 0 0 0 1 0 0 0 1 1 0 0 0

>  <DIFUSE_FUNC_ATOM>  (581) 
n/a

>  <FINAL_SINGLE_POINT_ENERGY>  (581) 
0

>  <NONCOV_INTER_ENERGY_QM>  (581) 
0

>  <FF_Energy>  (581) 
7.44

>  <QM_Energy>  (581) 
1.2

>  <source>  (581) 
ETAM_MSM

>  <Index>  (581) 
3410

$$$$
ETAM-pdb1q7m-A-LYS-414:MSM-pdb1q7m-A-MET-439
     RDKit          3D

 20 18  0  0  0  0  0  0  0  0999 V2000
    1.2509    0.8795    0.0000 C   0  0  0  0  0  0  0  0  0  0  0  0
    2.0472    0.2918    0.0885 H   0  0  0  0  0  0  0  0  0  0  0  0
    1.1918    1.5068    0.7676 H   0  0  0  0  0  0  0  0  0  0  0  0
    1.3313    1.4519   -0.9242 H   0  0  0  0  0  0  0  0  0  0  0  0
    0.0000    0.0000    0.0000 C   0  0  0  0  0  0  0  0  0  0  0  0
    0.0167   -0.5833   -0.8158 H   0  0  0  0  0  0  0  0  0  0  0  0
    0.0159   -0.5831    0.8161 H   0  0  0  0  0  0  0  0  0  0  0  0
   -1.2509    0.8100   -0.0000 N   0  0  0  0  0  4  0  0  0  0  0  0
   -1.0249    1.7669    0.1770 H   0  0  0  0  0  0  0  0  0  0  0  0
   -1.6975    0.7293   -0.8903 H   0  0  0  0  0  0  0  0  0  0  0  0
   -1.8632    0.4724    0.7143 H   0  0  0  0  0  0  0  0  0  0  0  0
   -1.4880    4.4190    0.0025 C   0  0  0  0  0  0  0  0  0  0  0  0
   -1.6065    4.6309   -0.9866 H   0  0  0  0  0  0  0  0  0  0  0  0
   -0.5672    3.9955    0.1008 H   0  0  0  0  0  0  0  0  0  0  0  0
   -1.5122    5.3499    0.5690 H   0  0  0  0  0  0  0  0  0  0  0  0
   -2.7731    3.2833    0.5684 S   0  0  0  0  0  0  0  0  0  0  0  0
   -4.2628    4.2533    0.2259 C   0  0  0  0  0  0  0  0  0  0  0  0
   -4.2194    5.1091    0.7364 H   0  0  0  0  0  0  0  0  0  0  0  0
   -4.3098    4.4438   -0.7527 H   0  0  0  0  0  0  0  0  0  0  0  0
   -5.0647    3.7301    0.5080 H   0  0  0  0  0  0  0  0  0  0  0  0
  1  5  1  0
  5  8  1  0
  1  2  1  0
  1  3  1  0
  1  4  1  0
  5  6  1  0
  5  7  1  0
  8  9  1  0
  8 10  1  0
  8 11  1  0
 12 16  1  0
 16 17  1  0
 12 13  1  0
 12 14  1  0
 12 15  1  0
 17 18  1  0
 17 19  1  0
 17 20  1  0
M  CHG  1   8   1
M  END
>  <PDB_ID>  (582) 
pdb1q7m

>  <RESIDUE_NAME>  (582) 
LYS   MET

>  <FRAG_NAME>  (582) 
ETAM   MSM

>  <FRAG_ATOM_NUM>  (582) 
fragi: 11  fragj: 9

>  <atom.prop.CHAIN_ID>  (582) 
A A A A A A A A A A A Z Z Z Z Z Z Z Z Z

>  <atom.prop.IS_HEAVY_ATOM>  (582) 
1 0 0 0 1 0 0 1 0 0 0 1 0 0 0 1 1 0 0 0

>  <DIFUSE_FUNC_ATOM>  (582) 
n/a

>  <FINAL_SINGLE_POINT_ENERGY>  (582) 
0

>  <NONCOV_INTER_ENERGY_QM>  (582) 
0

>  <FF_Energy>  (582) 
-2.46

>  <QM_Energy>  (582) 
-10.16

>  <source>  (582) 
ETAM_MSM

>  <Index>  (582) 
3434

$$$$
ETAM-pdb1q8i-A-LYS-531:MSM-pdb1q8i-A-MET-405
     RDKit          3D

 20 18  0  0  0  0  0  0  0  0999 V2000
    1.2364    0.9404    0.0000 C   0  0  0  0  0  0  0  0  0  0  0  0
    1.4111    1.2193    0.9234 H   0  0  0  0  0  0  0  0  0  0  0  0
    1.0486    1.6957   -0.5967 H   0  0  0  0  0  0  0  0  0  0  0  0
    2.1041    0.3981   -0.3756 H   0  0  0  0  0  0  0  0  0  0  0  0
    0.0000    0.0000    0.0000 C   0  0  0  0  0  0  0  0  0  0  0  0
    0.0518   -0.5706   -0.8157 H   0  0  0  0  0  0  0  0  0  0  0  0
    0.0516   -0.5709    0.8167 H   0  0  0  0  0  0  0  0  0  0  0  0
   -1.2364    0.7831    0.0000 N   0  0  0  0  0  4  0  0  0  0  0  0
   -2.0287    0.1745    0.0924 H   0  0  0  0  0  0  0  0  0  0  0  0
   -1.2335    1.4308    0.7669 H   0  0  0  0  0  0  0  0  0  0  0  0
   -1.3184    1.2964   -0.8590 H   0  0  0  0  0  0  0  0  0  0  0  0
   -1.1960    3.3634    3.3485 C   0  0  0  0  0  0  0  0  0  0  0  0
   -1.9264    3.3353    4.0466 H   0  0  0  0  0  0  0  0  0  0  0  0
   -1.6382    3.4144    2.4413 H   0  0  0  0  0  0  0  0  0  0  0  0
   -0.5899    4.2562    3.5020 H   0  0  0  0  0  0  0  0  0  0  0  0
   -0.1432    1.9129    3.4664 S   0  0  0  0  0  0  0  0  0  0  0  0
   -1.3245    0.6577    3.8727 C   0  0  0  0  0  0  0  0  0  0  0  0
   -1.0080   -0.2359    3.5403 H   0  0  0  0  0  0  0  0  0  0  0  0
   -1.4473    0.6076    4.8678 H   0  0  0  0  0  0  0  0  0  0  0  0
   -2.2106    0.8659    3.4477 H   0  0  0  0  0  0  0  0  0  0  0  0
  1  5  1  0
  5  8  1  0
  1  2  1  0
  1  3  1  0
  1  4  1  0
  5  6  1  0
  5  7  1  0
  8  9  1  0
  8 10  1  0
  8 11  1  0
 12 16  1  0
 16 17  1  0
 12 13  1  0
 12 14  1  0
 12 15  1  0
 17 18  1  0
 17 19  1  0
 17 20  1  0
M  CHG  1   8   1
M  END
>  <PDB_ID>  (583) 
pdb1q8i

>  <RESIDUE_NAME>  (583) 
LYS   MET

>  <FRAG_NAME>  (583) 
ETAM   MSM

>  <FRAG_ATOM_NUM>  (583) 
fragi: 11  fragj: 9

>  <atom.prop.CHAIN_ID>  (583) 
A A A A A A A A A A A Z Z Z Z Z Z Z Z Z

>  <atom.prop.IS_HEAVY_ATOM>  (583) 
1 0 0 0 1 0 0 1 0 0 0 1 0 0 0 1 1 0 0 0

>  <DIFUSE_FUNC_ATOM>  (583) 
n/a

>  <FINAL_SINGLE_POINT_ENERGY>  (583) 
0

>  <NONCOV_INTER_ENERGY_QM>  (583) 
0

>  <FF_Energy>  (583) 
-3.75

>  <QM_Energy>  (583) 
-9.53

>  <source>  (583) 
ETAM_MSM

>  <Index>  (583) 
3439

$$$$
ETAM-pdb1q2v-B-LYS-205:MSM-pdb1q2v-B-MET-360
     RDKit          3D

 20 18  0  0  0  0  0  0  0  0999 V2000
    1.2626    0.8692    0.0000 C   0  0  0  0  0  0  0  0  0  0  0  0
    1.1798    1.5412   -0.7287 H   0  0  0  0  0  0  0  0  0  0  0  0
    2.0475    0.2804   -0.1592 H   0  0  0  0  0  0  0  0  0  0  0  0
    1.3966    1.3903    0.9479 H   0  0  0  0  0  0  0  0  0  0  0  0
    0.0000    0.0000    0.0000 C   0  0  0  0  0  0  0  0  0  0  0  0
    0.0190   -0.5918   -0.8159 H   0  0  0  0  0  0  0  0  0  0  0  0
    0.0190   -0.5920    0.8166 H   0  0  0  0  0  0  0  0  0  0  0  0
   -1.2626    0.7924    0.0000 N   0  0  0  0  0  4  0  0  0  0  0  0
   -1.6962    0.7238   -0.8974 H   0  0  0  0  0  0  0  0  0  0  0  0
   -1.8789    0.4321    0.6986 H   0  0  0  0  0  0  0  0  0  0  0  0
   -1.0527    1.7486    0.1993 H   0  0  0  0  0  0  0  0  0  0  0  0
   -3.5605    1.2955    3.2764 C   0  0  0  0  0  0  0  0  0  0  0  0
   -3.9253    0.3834    3.5831 H   0  0  0  0  0  0  0  0  0  0  0  0
   -3.8528    1.3829    2.2941 H   0  0  0  0  0  0  0  0  0  0  0  0
   -4.0705    2.0702    3.8490 H   0  0  0  0  0  0  0  0  0  0  0  0
   -1.8066    1.3834    3.4431 S   0  0  0  0  0  0  0  0  0  0  0  0
   -1.5630    0.5152    4.9615 C   0  0  0  0  0  0  0  0  0  0  0  0
   -1.5892    1.1545    5.7367 H   0  0  0  0  0  0  0  0  0  0  0  0
   -2.2848   -0.1735    5.0889 H   0  0  0  0  0  0  0  0  0  0  0  0
   -0.6718    0.0499    4.9579 H   0  0  0  0  0  0  0  0  0  0  0  0
  1  5  1  0
  5  8  1  0
  1  2  1  0
  1  3  1  0
  1  4  1  0
  5  6  1  0
  5  7  1  0
  8  9  1  0
  8 10  1  0
  8 11  1  0
 12 16  1  0
 16 17  1  0
 12 13  1  0
 12 14  1  0
 12 15  1  0
 17 18  1  0
 17 19  1  0
 17 20  1  0
M  CHG  1   8   1
M  END
>  <PDB_ID>  (584) 
pdb1q2v

>  <RESIDUE_NAME>  (584) 
LYS   MET

>  <FRAG_NAME>  (584) 
ETAM   MSM

>  <FRAG_ATOM_NUM>  (584) 
fragi: 11  fragj: 9

>  <atom.prop.CHAIN_ID>  (584) 
A A A A A A A A A A A Z Z Z Z Z Z Z Z Z

>  <atom.prop.IS_HEAVY_ATOM>  (584) 
1 0 0 0 1 0 0 1 0 0 0 1 0 0 0 1 1 0 0 0

>  <DIFUSE_FUNC_ATOM>  (584) 
n/a

>  <FINAL_SINGLE_POINT_ENERGY>  (584) 
0

>  <NONCOV_INTER_ENERGY_QM>  (584) 
0

>  <FF_Energy>  (584) 
-5.0

>  <QM_Energy>  (584) 
-12.1

>  <source>  (584) 
ETAM_MSM

>  <Index>  (584) 
3448

$$$$
ETAM-pdb1q9o-A-LYS-89:MSM-pdb1q9o-B-MET-100
     RDKit          3D

 20 18  0  0  0  0  0  0  0  0999 V2000
    1.2671    0.8529    0.0000 C   0  0  0  0  0  0  0  0  0  0  0  0
    1.3295    1.3275    0.8651 H   0  0  0  0  0  0  0  0  0  0  0  0
    1.2212    1.4880   -0.7566 H   0  0  0  0  0  0  0  0  0  0  0  0
    2.1500    0.2252   -0.1207 H   0  0  0  0  0  0  0  0  0  0  0  0
    0.0000    0.0000    0.0000 C   0  0  0  0  0  0  0  0  0  0  0  0
    0.0170   -0.6017   -0.8165 H   0  0  0  0  0  0  0  0  0  0  0  0
    0.0174   -0.6018    0.8161 H   0  0  0  0  0  0  0  0  0  0  0  0
   -1.2671    0.7808    0.0000 N   0  0  0  0  0  4  0  0  0  0  0  0
   -1.2864    1.3813    0.7989 H   0  0  0  0  0  0  0  0  0  0  0  0
   -1.3174    1.3310   -0.8332 H   0  0  0  0  0  0  0  0  0  0  0  0
   -2.0439    0.1529    0.0340 H   0  0  0  0  0  0  0  0  0  0  0  0
   -2.3772    4.3302    0.6399 C   0  0  0  0  0  0  0  0  0  0  0  0
   -2.8574    4.6480    1.5163 H   0  0  0  0  0  0  0  0  0  0  0  0
   -2.7399    3.3525    0.5280 H   0  0  0  0  0  0  0  0  0  0  0  0
   -2.7642    4.9265   -0.1864 H   0  0  0  0  0  0  0  0  0  0  0  0
   -0.5811    4.3067    0.8842 S   0  0  0  0  0  0  0  0  0  0  0  0
   -0.5257    3.7337    2.5317 C   0  0  0  0  0  0  0  0  0  0  0  0
   -1.3548    3.2042    2.7556 H   0  0  0  0  0  0  0  0  0  0  0  0
    0.2753    3.1379    2.6776 H   0  0  0  0  0  0  0  0  0  0  0  0
   -0.4629    4.5062    3.1779 H   0  0  0  0  0  0  0  0  0  0  0  0
  1  5  1  0
  5  8  1  0
  1  2  1  0
  1  3  1  0
  1  4  1  0
  5  6  1  0
  5  7  1  0
  8  9  1  0
  8 10  1  0
  8 11  1  0
 12 16  1  0
 16 17  1  0
 12 13  1  0
 12 14  1  0
 12 15  1  0
 17 18  1  0
 17 19  1  0
 17 20  1  0
M  CHG  1   8   1
M  END
>  <PDB_ID>  (585) 
pdb1q9o

>  <RESIDUE_NAME>  (585) 
LYS   MET

>  <FRAG_NAME>  (585) 
ETAM   MSM

>  <FRAG_ATOM_NUM>  (585) 
fragi: 11  fragj: 9

>  <atom.prop.CHAIN_ID>  (585) 
A A A A A A A A A A A Z Z Z Z Z Z Z Z Z

>  <atom.prop.IS_HEAVY_ATOM>  (585) 
1 0 0 0 1 0 0 1 0 0 0 1 0 0 0 1 1 0 0 0

>  <DIFUSE_FUNC_ATOM>  (585) 
n/a

>  <FINAL_SINGLE_POINT_ENERGY>  (585) 
0

>  <NONCOV_INTER_ENERGY_QM>  (585) 
0

>  <FF_Energy>  (585) 
-3.31

>  <QM_Energy>  (585) 
-8.32

>  <source>  (585) 
ETAM_MSM

>  <Index>  (585) 
3449

$$$$
ETAM-pdb2wj1-B-LYS-142:MSM-pdb2wj1-B-MET-191
     RDKit          3D

 20 18  0  0  0  0  0  0  0  0999 V2000
    1.2184    0.8528    0.0000 C   0  0  0  0  0  0  0  0  0  0  0  0
    1.1357    1.5372    0.7161 H   0  0  0  0  0  0  0  0  0  0  0  0
    1.3090    1.2899   -0.8884 H   0  0  0  0  0  0  0  0  0  0  0  0
    2.0970    0.2365    0.1904 H   0  0  0  0  0  0  0  0  0  0  0  0
    0.0000    0.0000    0.0000 C   0  0  0  0  0  0  0  0  0  0  0  0
    0.0290   -0.6099   -0.8159 H   0  0  0  0  0  0  0  0  0  0  0  0
    0.0288   -0.6100    0.8164 H   0  0  0  0  0  0  0  0  0  0  0  0
   -1.2184    0.7557   -0.0000 N   0  0  0  0  0  4  0  0  0  0  0  0
   -1.0316    1.7372    0.1380 H   0  0  0  0  0  0  0  0  0  0  0  0
   -1.7065    0.6504   -0.8773 H   0  0  0  0  0  0  0  0  0  0  0  0
   -1.8324    0.4467    0.7392 H   0  0  0  0  0  0  0  0  0  0  0  0
   -1.5536   -4.0244   -1.1942 C   0  0  0  0  0  0  0  0  0  0  0  0
   -1.2348   -4.0079   -0.2360 H   0  0  0  0  0  0  0  0  0  0  0  0
   -1.4431   -4.9657   -1.5420 H   0  0  0  0  0  0  0  0  0  0  0  0
   -2.6121   -3.7650   -1.2153 H   0  0  0  0  0  0  0  0  0  0  0  0
   -0.6479   -2.8528   -2.1976 S   0  0  0  0  0  0  0  0  0  0  0  0
   -1.2010   -3.2182   -3.8609 C   0  0  0  0  0  0  0  0  0  0  0  0
   -2.1306   -2.8708   -3.9900 H   0  0  0  0  0  0  0  0  0  0  0  0
   -0.5892   -2.7811   -4.5216 H   0  0  0  0  0  0  0  0  0  0  0  0
   -1.1938   -4.2086   -4.0073 H   0  0  0  0  0  0  0  0  0  0  0  0
  1  5  1  0
  5  8  1  0
  1  2  1  0
  1  3  1  0
  1  4  1  0
  5  6  1  0
  5  7  1  0
  8  9  1  0
  8 10  1  0
  8 11  1  0
 12 16  1  0
 16 17  1  0
 12 13  1  0
 12 14  1  0
 12 15  1  0
 17 18  1  0
 17 19  1  0
 17 20  1  0
M  CHG  1   8   1
M  END
>  <PDB_ID>  (586) 
pdb2wj1

>  <RESIDUE_NAME>  (586) 
LYS   MET

>  <FRAG_NAME>  (586) 
ETAM   MSM

>  <FRAG_ATOM_NUM>  (586) 
fragi: 11  fragj: 9

>  <atom.prop.CHAIN_ID>  (586) 
A A A A A A A A A A A Z Z Z Z Z Z Z Z Z

>  <atom.prop.IS_HEAVY_ATOM>  (586) 
1 0 0 0 1 0 0 1 0 0 0 1 0 0 0 1 1 0 0 0

>  <DIFUSE_FUNC_ATOM>  (586) 
n/a

>  <FINAL_SINGLE_POINT_ENERGY>  (586) 
0

>  <NONCOV_INTER_ENERGY_QM>  (586) 
0

>  <FF_Energy>  (586) 
-3.36

>  <QM_Energy>  (586) 
-8.9

>  <source>  (586) 
ETAM_MSM

>  <Index>  (586) 
3451

$$$$
ETAM-pdb1q8i-A-LYS-235:MSM-pdb1q8i-A-MET-232
     RDKit          3D

 20 18  0  0  0  0  0  0  0  0999 V2000
    1.2446    0.8777    0.0000 C   0  0  0  0  0  0  0  0  0  0  0  0
    1.0705    1.6739   -0.5763 H   0  0  0  0  0  0  0  0  0  0  0  0
    2.0042    0.3489   -0.3711 H   0  0  0  0  0  0  0  0  0  0  0  0
    1.5089    1.2198    1.0007 H   0  0  0  0  0  0  0  0  0  0  0  0
    0.0000    0.0000    0.0000 C   0  0  0  0  0  0  0  0  0  0  0  0
    0.0177   -0.5851   -0.8166 H   0  0  0  0  0  0  0  0  0  0  0  0
    0.0174   -0.5852    0.8163 H   0  0  0  0  0  0  0  0  0  0  0  0
   -1.2446    0.8056    0.0000 N   0  0  0  0  0  4  0  0  0  0  0  0
   -1.5876    0.8917   -0.9363 H   0  0  0  0  0  0  0  0  0  0  0  0
   -1.9347    0.3551    0.5667 H   0  0  0  0  0  0  0  0  0  0  0  0
   -1.0538    1.7163    0.3689 H   0  0  0  0  0  0  0  0  0  0  0  0
   -3.2946   -0.2562    1.3224 C   0  0  0  0  0  0  0  0  0  0  0  0
   -2.5403   -0.7046    0.7609 H   0  0  0  0  0  0  0  0  0  0  0  0
   -3.7287   -1.0610    1.8220 H   0  0  0  0  0  0  0  0  0  0  0  0
   -2.8210    0.3837    2.0667 H   0  0  0  0  0  0  0  0  0  0  0  0
   -4.4954    0.5438    0.2458 S   0  0  0  0  0  0  0  0  0  0  0  0
   -4.0531   -0.1534   -1.3480 C   0  0  0  0  0  0  0  0  0  0  0  0
   -3.1495    0.1791   -1.6189 H   0  0  0  0  0  0  0  0  0  0  0  0
   -4.0350   -1.1511   -1.2825 H   0  0  0  0  0  0  0  0  0  0  0  0
   -4.7289    0.1224   -2.0322 H   0  0  0  0  0  0  0  0  0  0  0  0
  1  5  1  0
  5  8  1  0
  1  2  1  0
  1  3  1  0
  1  4  1  0
  5  6  1  0
  5  7  1  0
  8  9  1  0
  8 10  1  0
  8 11  1  0
 12 16  1  0
 16 17  1  0
 12 13  1  0
 12 14  1  0
 12 15  1  0
 17 18  1  0
 17 19  1  0
 17 20  1  0
M  CHG  1   8   1
M  END
>  <PDB_ID>  (587) 
pdb1q8i

>  <RESIDUE_NAME>  (587) 
LYS   MET

>  <FRAG_NAME>  (587) 
ETAM   MSM

>  <FRAG_ATOM_NUM>  (587) 
fragi: 11  fragj: 9

>  <atom.prop.CHAIN_ID>  (587) 
A A A A A A A A A A A Z Z Z Z Z Z Z Z Z

>  <atom.prop.IS_HEAVY_ATOM>  (587) 
1 0 0 0 1 0 0 1 0 0 0 1 0 0 0 1 1 0 0 0

>  <DIFUSE_FUNC_ATOM>  (587) 
n/a

>  <FINAL_SINGLE_POINT_ENERGY>  (587) 
0

>  <NONCOV_INTER_ENERGY_QM>  (587) 
0

>  <FF_Energy>  (587) 
19.78

>  <QM_Energy>  (587) 
10.28

>  <source>  (587) 
ETAM_MSM

>  <Index>  (587) 
3452

$$$$
ETAM-pdb1qex-A-LYS-7:MSM-pdb1qex-B-MET-48
     RDKit          3D

 20 18  0  0  0  0  0  0  0  0999 V2000
    1.2380    0.8866   -0.0000 C   0  0  0  0  0  0  0  0  0  0  0  0
    1.1904    1.4931    0.7851 H   0  0  0  0  0  0  0  0  0  0  0  0
    1.2508    1.4093   -0.8445 H   0  0  0  0  0  0  0  0  0  0  0  0
    2.1474    0.2891    0.0647 H   0  0  0  0  0  0  0  0  0  0  0  0
    0.0000    0.0000    0.0000 C   0  0  0  0  0  0  0  0  0  0  0  0
    0.0109   -0.5734   -0.8158 H   0  0  0  0  0  0  0  0  0  0  0  0
    0.0111   -0.5736    0.8163 H   0  0  0  0  0  0  0  0  0  0  0  0
   -1.2380    0.8315   -0.0000 N   0  0  0  0  0  4  0  0  0  0  0  0
   -1.5692    0.9306    0.9371 H   0  0  0  0  0  0  0  0  0  0  0  0
   -1.0309    1.7313   -0.3802 H   0  0  0  0  0  0  0  0  0  0  0  0
   -1.9360    0.3838   -0.5572 H   0  0  0  0  0  0  0  0  0  0  0  0
   -5.8594    2.1132   -1.6737 C   0  0  0  0  0  0  0  0  0  0  0  0
   -5.5069    2.0179   -2.6339 H   0  0  0  0  0  0  0  0  0  0  0  0
   -6.2018    3.0798   -1.6068 H   0  0  0  0  0  0  0  0  0  0  0  0
   -6.7041    1.4362   -1.5461 H   0  0  0  0  0  0  0  0  0  0  0  0
   -4.5399    1.8219   -0.4795 S   0  0  0  0  0  0  0  0  0  0  0  0
   -5.2640    2.5357    0.9903 C   0  0  0  0  0  0  0  0  0  0  0  0
   -5.5328    1.8070    1.6228 H   0  0  0  0  0  0  0  0  0  0  0  0
   -4.5972    3.1328    1.4397 H   0  0  0  0  0  0  0  0  0  0  0  0
   -6.0730    3.0713    0.7424 H   0  0  0  0  0  0  0  0  0  0  0  0
  1  5  1  0
  5  8  1  0
  1  2  1  0
  1  3  1  0
  1  4  1  0
  5  6  1  0
  5  7  1  0
  8  9  1  0
  8 10  1  0
  8 11  1  0
 12 16  1  0
 16 17  1  0
 12 13  1  0
 12 14  1  0
 12 15  1  0
 17 18  1  0
 17 19  1  0
 17 20  1  0
M  CHG  1   8   1
M  END
>  <PDB_ID>  (588) 
pdb1qex

>  <RESIDUE_NAME>  (588) 
LYS   MET

>  <FRAG_NAME>  (588) 
ETAM   MSM

>  <FRAG_ATOM_NUM>  (588) 
fragi: 11  fragj: 9

>  <atom.prop.CHAIN_ID>  (588) 
A A A A A A A A A A A Z Z Z Z Z Z Z Z Z

>  <atom.prop.IS_HEAVY_ATOM>  (588) 
1 0 0 0 1 0 0 1 0 0 0 1 0 0 0 1 1 0 0 0

>  <DIFUSE_FUNC_ATOM>  (588) 
n/a

>  <FINAL_SINGLE_POINT_ENERGY>  (588) 
0

>  <NONCOV_INTER_ENERGY_QM>  (588) 
0

>  <FF_Energy>  (588) 
-5.11

>  <QM_Energy>  (588) 
-11.58

>  <source>  (588) 
ETAM_MSM

>  <Index>  (588) 
3457

$$$$
ETAM-pdb1q9o-C-LYS-89:MSM-pdb1q9o-D-MET-100
     RDKit          3D

 20 18  0  0  0  0  0  0  0  0999 V2000
    1.2581    0.8632   -0.0000 C   0  0  0  0  0  0  0  0  0  0  0  0
    1.3302    1.3190    0.8756 H   0  0  0  0  0  0  0  0  0  0  0  0
    1.1934    1.5172   -0.7394 H   0  0  0  0  0  0  0  0  0  0  0  0
    2.1457    0.2485   -0.1500 H   0  0  0  0  0  0  0  0  0  0  0  0
    0.0000    0.0000    0.0000 C   0  0  0  0  0  0  0  0  0  0  0  0
    0.0087   -0.5867   -0.8164 H   0  0  0  0  0  0  0  0  0  0  0  0
    0.0071   -0.5865    0.8164 H   0  0  0  0  0  0  0  0  0  0  0  0
   -1.2581    0.8152   -0.0000 N   0  0  0  0  0  4  0  0  0  0  0  0
   -1.9654    0.3239   -0.5051 H   0  0  0  0  0  0  0  0  0  0  0  0
   -1.5528    0.9594    0.9422 H   0  0  0  0  0  0  0  0  0  0  0  0
   -1.0775    1.6940   -0.4381 H   0  0  0  0  0  0  0  0  0  0  0  0
   -2.5895    4.2119    0.7448 C   0  0  0  0  0  0  0  0  0  0  0  0
   -3.0967    4.5497    1.5892 H   0  0  0  0  0  0  0  0  0  0  0  0
   -2.9065    3.2235    0.6570 H   0  0  0  0  0  0  0  0  0  0  0  0
   -2.9739    4.7615   -0.1144 H   0  0  0  0  0  0  0  0  0  0  0  0
   -0.8041    4.2866    1.0028 S   0  0  0  0  0  0  0  0  0  0  0  0
   -0.6872    3.5709    2.6301 C   0  0  0  0  0  0  0  0  0  0  0  0
    0.2712    3.5508    2.9257 H   0  0  0  0  0  0  0  0  0  0  0  0
   -1.2200    4.1163    3.2812 H   0  0  0  0  0  0  0  0  0  0  0  0
   -1.0459    2.6347    2.6166 H   0  0  0  0  0  0  0  0  0  0  0  0
  1  5  1  0
  5  8  1  0
  1  2  1  0
  1  3  1  0
  1  4  1  0
  5  6  1  0
  5  7  1  0
  8  9  1  0
  8 10  1  0
  8 11  1  0
 12 16  1  0
 16 17  1  0
 12 13  1  0
 12 14  1  0
 12 15  1  0
 17 18  1  0
 17 19  1  0
 17 20  1  0
M  CHG  1   8   1
M  END
>  <PDB_ID>  (589) 
pdb1q9o

>  <RESIDUE_NAME>  (589) 
LYS   MET

>  <FRAG_NAME>  (589) 
ETAM   MSM

>  <FRAG_ATOM_NUM>  (589) 
fragi: 11  fragj: 9

>  <atom.prop.CHAIN_ID>  (589) 
A A A A A A A A A A A Z Z Z Z Z Z Z Z Z

>  <atom.prop.IS_HEAVY_ATOM>  (589) 
1 0 0 0 1 0 0 1 0 0 0 1 0 0 0 1 1 0 0 0

>  <DIFUSE_FUNC_ATOM>  (589) 
n/a

>  <FINAL_SINGLE_POINT_ENERGY>  (589) 
0

>  <NONCOV_INTER_ENERGY_QM>  (589) 
0

>  <FF_Energy>  (589) 
-3.09

>  <QM_Energy>  (589) 
-8.86

>  <source>  (589) 
ETAM_MSM

>  <Index>  (589) 
3464

$$$$
ETAM-pdb2wlt-B-LYS-168:MSM-pdb2wlt-B-MET-121
     RDKit          3D

 20 18  0  0  0  0  0  0  0  0999 V2000
    1.2478    0.8842   -0.0000 C   0  0  0  0  0  0  0  0  0  0  0  0
    1.1358    1.5791    0.6886 H   0  0  0  0  0  0  0  0  0  0  0  0
    1.3548    1.2692   -0.8998 H   0  0  0  0  0  0  0  0  0  0  0  0
    2.1163    0.2710    0.2401 H   0  0  0  0  0  0  0  0  0  0  0  0
    0.0000    0.0000    0.0000 C   0  0  0  0  0  0  0  0  0  0  0  0
    0.0039   -0.5688   -0.8157 H   0  0  0  0  0  0  0  0  0  0  0  0
    0.0038   -0.5686    0.8164 H   0  0  0  0  0  0  0  0  0  0  0  0
   -1.2478    0.8468   -0.0000 N   0  0  0  0  0  4  0  0  0  0  0  0
   -1.0713    1.6801   -0.5172 H   0  0  0  0  0  0  0  0  0  0  0  0
   -1.9871    0.3308   -0.4245 H   0  0  0  0  0  0  0  0  0  0  0  0
   -1.4837    1.0719    0.9417 H   0  0  0  0  0  0  0  0  0  0  0  0
   -2.2736   -1.6998    4.5490 C   0  0  0  0  0  0  0  0  0  0  0  0
   -2.1033   -1.0498    5.3028 H   0  0  0  0  0  0  0  0  0  0  0  0
   -1.6166   -2.4611    4.6408 H   0  0  0  0  0  0  0  0  0  0  0  0
   -3.2833   -2.0968    4.6534 H   0  0  0  0  0  0  0  0  0  0  0  0
   -2.0819   -0.8753    2.9332 S   0  0  0  0  0  0  0  0  0  0  0  0
   -2.1293   -2.3302    1.8737 C   0  0  0  0  0  0  0  0  0  0  0  0
   -1.5095   -3.0247    2.2367 H   0  0  0  0  0  0  0  0  0  0  0  0
   -3.0607   -2.6920    1.8493 H   0  0  0  0  0  0  0  0  0  0  0  0
   -1.8445   -2.0766    0.9503 H   0  0  0  0  0  0  0  0  0  0  0  0
  1  5  1  0
  5  8  1  0
  1  2  1  0
  1  3  1  0
  1  4  1  0
  5  6  1  0
  5  7  1  0
  8  9  1  0
  8 10  1  0
  8 11  1  0
 12 16  1  0
 16 17  1  0
 12 13  1  0
 12 14  1  0
 12 15  1  0
 17 18  1  0
 17 19  1  0
 17 20  1  0
M  CHG  1   8   1
M  END
>  <PDB_ID>  (590) 
pdb2wlt

>  <RESIDUE_NAME>  (590) 
LYS   MET

>  <FRAG_NAME>  (590) 
ETAM   MSM

>  <FRAG_ATOM_NUM>  (590) 
fragi: 11  fragj: 9

>  <atom.prop.CHAIN_ID>  (590) 
A A A A A A A A A A A Z Z Z Z Z Z Z Z Z

>  <atom.prop.IS_HEAVY_ATOM>  (590) 
1 0 0 0 1 0 0 1 0 0 0 1 0 0 0 1 1 0 0 0

>  <DIFUSE_FUNC_ATOM>  (590) 
n/a

>  <FINAL_SINGLE_POINT_ENERGY>  (590) 
0

>  <NONCOV_INTER_ENERGY_QM>  (590) 
0

>  <FF_Energy>  (590) 
-4.58

>  <QM_Energy>  (590) 
-10.3

>  <source>  (590) 
ETAM_MSM

>  <Index>  (590) 
3466

$$$$
ETAM-pdb1qgk-B-LYS-18:MSM-pdb1qgk-A-MET-388
     RDKit          3D

 20 18  0  0  0  0  0  0  0  0999 V2000
    1.2442    0.8692    0.0000 C   0  0  0  0  0  0  0  0  0  0  0  0
    1.2333    1.4438    0.8100 H   0  0  0  0  0  0  0  0  0  0  0  0
    1.2460    1.4253   -0.8225 H   0  0  0  0  0  0  0  0  0  0  0  0
    2.1497    0.2626    0.0146 H   0  0  0  0  0  0  0  0  0  0  0  0
    0.0000    0.0000    0.0000 C   0  0  0  0  0  0  0  0  0  0  0  0
    0.0157   -0.5888   -0.8166 H   0  0  0  0  0  0  0  0  0  0  0  0
    0.0149   -0.5894    0.8162 H   0  0  0  0  0  0  0  0  0  0  0  0
   -1.2442    0.8022    0.0000 N   0  0  0  0  0  4  0  0  0  0  0  0
   -1.5034    1.0191    0.9417 H   0  0  0  0  0  0  0  0  0  0  0  0
   -1.0954    1.6523   -0.5076 H   0  0  0  0  0  0  0  0  0  0  0  0
   -1.9796    0.2801   -0.4340 H   0  0  0  0  0  0  0  0  0  0  0  0
   -1.4427   -5.5027   -0.5477 C   0  0  0  0  0  0  0  0  0  0  0  0
   -1.8856   -5.6794    0.3762 H   0  0  0  0  0  0  0  0  0  0  0  0
   -0.9376   -6.3898   -0.7481 H   0  0  0  0  0  0  0  0  0  0  0  0
   -2.2333   -5.3839   -1.2886 H   0  0  0  0  0  0  0  0  0  0  0  0
   -0.3225   -4.1401   -0.4636 S   0  0  0  0  0  0  0  0  0  0  0  0
   -1.3754   -2.8785    0.2144 C   0  0  0  0  0  0  0  0  0  0  0  0
   -1.6513   -3.1269    1.1465 H   0  0  0  0  0  0  0  0  0  0  0  0
   -0.8865   -2.0023    0.2424 H   0  0  0  0  0  0  0  0  0  0  0  0
   -2.1970   -2.7765   -0.3532 H   0  0  0  0  0  0  0  0  0  0  0  0
  1  5  1  0
  5  8  1  0
  1  2  1  0
  1  3  1  0
  1  4  1  0
  5  6  1  0
  5  7  1  0
  8  9  1  0
  8 10  1  0
  8 11  1  0
 12 16  1  0
 16 17  1  0
 12 13  1  0
 12 14  1  0
 12 15  1  0
 17 18  1  0
 17 19  1  0
 17 20  1  0
M  CHG  1   8   1
M  END
>  <PDB_ID>  (591) 
pdb1qgk

>  <RESIDUE_NAME>  (591) 
LYS   MET

>  <FRAG_NAME>  (591) 
ETAM   MSM

>  <FRAG_ATOM_NUM>  (591) 
fragi: 11  fragj: 9

>  <atom.prop.CHAIN_ID>  (591) 
A A A A A A A A A A A Z Z Z Z Z Z Z Z Z

>  <atom.prop.IS_HEAVY_ATOM>  (591) 
1 0 0 0 1 0 0 1 0 0 0 1 0 0 0 1 1 0 0 0

>  <DIFUSE_FUNC_ATOM>  (591) 
n/a

>  <FINAL_SINGLE_POINT_ENERGY>  (591) 
0

>  <NONCOV_INTER_ENERGY_QM>  (591) 
0

>  <FF_Energy>  (591) 
9.74

>  <QM_Energy>  (591) 
2.82

>  <source>  (591) 
ETAM_MSM

>  <Index>  (591) 
3468

$$$$
ETAM-pdb1qjb-A-LYS-9:MSM-pdb1qjb-A-MET-1
     RDKit          3D

 20 18  0  0  0  0  0  0  0  0999 V2000
    1.2697    0.8524    0.0000 C   0  0  0  0  0  0  0  0  0  0  0  0
    1.5312    1.0229    0.9429 H   0  0  0  0  0  0  0  0  0  0  0  0
    1.0724    1.7057   -0.4681 H   0  0  0  0  0  0  0  0  0  0  0  0
    2.0857    0.3422   -0.5117 H   0  0  0  0  0  0  0  0  0  0  0  0
    0.0000    0.0000    0.0000 C   0  0  0  0  0  0  0  0  0  0  0  0
    0.0176   -0.6019   -0.8163 H   0  0  0  0  0  0  0  0  0  0  0  0
    0.0167   -0.6019    0.8159 H   0  0  0  0  0  0  0  0  0  0  0  0
   -1.2697    0.7801   -0.0000 N   0  0  0  0  0  4  0  0  0  0  0  0
   -1.8970    0.3907    0.6729 H   0  0  0  0  0  0  0  0  0  0  0  0
   -1.0735    1.7311    0.2350 H   0  0  0  0  0  0  0  0  0  0  0  0
   -1.6837    0.7371   -0.9081 H   0  0  0  0  0  0  0  0  0  0  0  0
    1.9238    4.7752    3.6017 C   0  0  0  0  0  0  0  0  0  0  0  0
    1.2618    4.5551    4.3574 H   0  0  0  0  0  0  0  0  0  0  0  0
    1.3979    5.3715    2.9500 H   0  0  0  0  0  0  0  0  0  0  0  0
    2.7461    5.3565    4.0188 H   0  0  0  0  0  0  0  0  0  0  0  0
    2.4652    3.2560    2.7728 S   0  0  0  0  0  0  0  0  0  0  0  0
    1.0662    2.1838    3.0685 C   0  0  0  0  0  0  0  0  0  0  0  0
    1.1649    1.3434    2.5320 H   0  0  0  0  0  0  0  0  0  0  0  0
    1.0196    1.9510    4.0414 H   0  0  0  0  0  0  0  0  0  0  0  0
    0.2214    2.6495    2.7993 H   0  0  0  0  0  0  0  0  0  0  0  0
  1  5  1  0
  5  8  1  0
  1  2  1  0
  1  3  1  0
  1  4  1  0
  5  6  1  0
  5  7  1  0
  8  9  1  0
  8 10  1  0
  8 11  1  0
 12 16  1  0
 16 17  1  0
 12 13  1  0
 12 14  1  0
 12 15  1  0
 17 18  1  0
 17 19  1  0
 17 20  1  0
M  CHG  1   8   1
M  END
>  <PDB_ID>  (592) 
pdb1qjb

>  <RESIDUE_NAME>  (592) 
LYS   MET

>  <FRAG_NAME>  (592) 
ETAM   MSM

>  <FRAG_ATOM_NUM>  (592) 
fragi: 11  fragj: 9

>  <atom.prop.CHAIN_ID>  (592) 
A A A A A A A A A A A Z Z Z Z Z Z Z Z Z

>  <atom.prop.IS_HEAVY_ATOM>  (592) 
1 0 0 0 1 0 0 1 0 0 0 1 0 0 0 1 1 0 0 0

>  <DIFUSE_FUNC_ATOM>  (592) 
n/a

>  <FINAL_SINGLE_POINT_ENERGY>  (592) 
0

>  <NONCOV_INTER_ENERGY_QM>  (592) 
0

>  <FF_Energy>  (592) 
8.2

>  <QM_Energy>  (592) 
0.91

>  <source>  (592) 
ETAM_MSM

>  <Index>  (592) 
3484

$$$$
ETAM-pdb2wqi-B-LYS-370:MSM-pdb2wqi-D-MET-378
     RDKit          3D

 20 18  0  0  0  0  0  0  0  0999 V2000
    1.2539    0.8721   -0.0000 C   0  0  0  0  0  0  0  0  0  0  0  0
    1.3452    1.2976    0.8882 H   0  0  0  0  0  0  0  0  0  0  0  0
    1.1702    1.5485   -0.7166 H   0  0  0  0  0  0  0  0  0  0  0  0
    2.1409    0.2678   -0.1904 H   0  0  0  0  0  0  0  0  0  0  0  0
    0.0000    0.0000    0.0000 C   0  0  0  0  0  0  0  0  0  0  0  0
    0.0138   -0.5856   -0.8165 H   0  0  0  0  0  0  0  0  0  0  0  0
    0.0142   -0.5862    0.8167 H   0  0  0  0  0  0  0  0  0  0  0  0
   -1.2539    0.8082   -0.0000 N   0  0  0  0  0  4  0  0  0  0  0  0
   -1.0910    1.6692   -0.4788 H   0  0  0  0  0  0  0  0  0  0  0  0
   -1.9759    0.2971   -0.4637 H   0  0  0  0  0  0  0  0  0  0  0  0
   -1.5261    0.9943    0.9430 H   0  0  0  0  0  0  0  0  0  0  0  0
   -4.0124   -1.1403    2.9914 C   0  0  0  0  0  0  0  0  0  0  0  0
   -3.5362   -2.0237    2.9267 H   0  0  0  0  0  0  0  0  0  0  0  0
   -4.7279   -1.1094    2.2861 H   0  0  0  0  0  0  0  0  0  0  0  0
   -4.4664   -1.0430    3.9775 H   0  0  0  0  0  0  0  0  0  0  0  0
   -2.8372    0.2297    2.7587 S   0  0  0  0  0  0  0  0  0  0  0  0
   -3.9844    1.5546    2.3826 C   0  0  0  0  0  0  0  0  0  0  0  0
   -4.6051    1.6898    3.1557 H   0  0  0  0  0  0  0  0  0  0  0  0
   -3.4758    2.4003    2.2129 H   0  0  0  0  0  0  0  0  0  0  0  0
   -4.5156    1.3170    1.5678 H   0  0  0  0  0  0  0  0  0  0  0  0
  1  5  1  0
  5  8  1  0
  1  2  1  0
  1  3  1  0
  1  4  1  0
  5  6  1  0
  5  7  1  0
  8  9  1  0
  8 10  1  0
  8 11  1  0
 12 16  1  0
 16 17  1  0
 12 13  1  0
 12 14  1  0
 12 15  1  0
 17 18  1  0
 17 19  1  0
 17 20  1  0
M  CHG  1   8   1
M  END
>  <PDB_ID>  (593) 
pdb2wqi

>  <RESIDUE_NAME>  (593) 
LYS   MET

>  <FRAG_NAME>  (593) 
ETAM   MSM

>  <FRAG_ATOM_NUM>  (593) 
fragi: 11  fragj: 9

>  <atom.prop.CHAIN_ID>  (593) 
A A A A A A A A A A A Z Z Z Z Z Z Z Z Z

>  <atom.prop.IS_HEAVY_ATOM>  (593) 
1 0 0 0 1 0 0 1 0 0 0 1 0 0 0 1 1 0 0 0

>  <DIFUSE_FUNC_ATOM>  (593) 
n/a

>  <FINAL_SINGLE_POINT_ENERGY>  (593) 
0

>  <NONCOV_INTER_ENERGY_QM>  (593) 
0

>  <FF_Energy>  (593) 
-4.97

>  <QM_Energy>  (593) 
-13.8

>  <source>  (593) 
ETAM_MSM

>  <Index>  (593) 
3490

$$$$
ETAM-pdb1qlb-D-LYS-75:MSM-pdb1qlb-D-MET-71
     RDKit          3D

 20 18  0  0  0  0  0  0  0  0999 V2000
    1.2287    0.8802   -0.0000 C   0  0  0  0  0  0  0  0  0  0  0  0
    1.0863    1.6303    0.6470 H   0  0  0  0  0  0  0  0  0  0  0  0
    1.3549    1.2554   -0.9199 H   0  0  0  0  0  0  0  0  0  0  0  0
    2.1333    0.3426    0.2843 H   0  0  0  0  0  0  0  0  0  0  0  0
    0.0000    0.0000    0.0000 C   0  0  0  0  0  0  0  0  0  0  0  0
   -0.0048   -0.5649   -0.8160 H   0  0  0  0  0  0  0  0  0  0  0  0
   -0.0049   -0.5645    0.8168 H   0  0  0  0  0  0  0  0  0  0  0  0
   -1.2287    0.8639    0.0000 N   0  0  0  0  0  4  0  0  0  0  0  0
   -0.9682    1.7989    0.2281 H   0  0  0  0  0  0  0  0  0  0  0  0
   -1.6439    0.8381   -0.9061 H   0  0  0  0  0  0  0  0  0  0  0  0
   -1.8714    0.5145    0.6782 H   0  0  0  0  0  0  0  0  0  0  0  0
    2.2643    4.0227    0.0345 C   0  0  0  0  0  0  0  0  0  0  0  0
    2.1610    3.5952   -0.8978 H   0  0  0  0  0  0  0  0  0  0  0  0
    2.4768    3.2336    0.6631 H   0  0  0  0  0  0  0  0  0  0  0  0
    3.1280    4.6871    0.0132 H   0  0  0  0  0  0  0  0  0  0  0  0
    0.7218    4.8327    0.5345 S   0  0  0  0  0  0  0  0  0  0  0  0
    0.9769    4.8923    2.3421 C   0  0  0  0  0  0  0  0  0  0  0  0
    1.4357    4.0561    2.6267 H   0  0  0  0  0  0  0  0  0  0  0  0
    1.5386    5.6850    2.5580 H   0  0  0  0  0  0  0  0  0  0  0  0
    0.0889    4.9672    2.7862 H   0  0  0  0  0  0  0  0  0  0  0  0
  1  5  1  0
  5  8  1  0
  1  2  1  0
  1  3  1  0
  1  4  1  0
  5  6  1  0
  5  7  1  0
  8  9  1  0
  8 10  1  0
  8 11  1  0
 12 16  1  0
 16 17  1  0
 12 13  1  0
 12 14  1  0
 12 15  1  0
 17 18  1  0
 17 19  1  0
 17 20  1  0
M  CHG  1   8   1
M  END
>  <PDB_ID>  (594) 
pdb1qlb

>  <RESIDUE_NAME>  (594) 
LYS   MET

>  <FRAG_NAME>  (594) 
ETAM   MSM

>  <FRAG_ATOM_NUM>  (594) 
fragi: 11  fragj: 9

>  <atom.prop.CHAIN_ID>  (594) 
A A A A A A A A A A A Z Z Z Z Z Z Z Z Z

>  <atom.prop.IS_HEAVY_ATOM>  (594) 
1 0 0 0 1 0 0 1 0 0 0 1 0 0 0 1 1 0 0 0

>  <DIFUSE_FUNC_ATOM>  (594) 
n/a

>  <FINAL_SINGLE_POINT_ENERGY>  (594) 
0

>  <NONCOV_INTER_ENERGY_QM>  (594) 
0

>  <FF_Energy>  (594) 
-1.88

>  <QM_Energy>  (594) 
-6.94

>  <source>  (594) 
ETAM_MSM

>  <Index>  (594) 
3503

$$$$
ETAM-pdb1qlb-A-LYS-123:MSM-pdb1qlb-A-MET-60
     RDKit          3D

 20 18  0  0  0  0  0  0  0  0999 V2000
    1.2467    0.8736    0.0000 C   0  0  0  0  0  0  0  0  0  0  0  0
    1.2369    1.4401    0.8181 H   0  0  0  0  0  0  0  0  0  0  0  0
    1.2339    1.4440   -0.8149 H   0  0  0  0  0  0  0  0  0  0  0  0
    2.1574    0.2747   -0.0023 H   0  0  0  0  0  0  0  0  0  0  0  0
    0.0000    0.0000    0.0000 C   0  0  0  0  0  0  0  0  0  0  0  0
    0.0129   -0.5834   -0.8161 H   0  0  0  0  0  0  0  0  0  0  0  0
    0.0127   -0.5836    0.8159 H   0  0  0  0  0  0  0  0  0  0  0  0
   -1.2467    0.8138    0.0000 N   0  0  0  0  0  4  0  0  0  0  0  0
   -2.0216    0.2326   -0.2477 H   0  0  0  0  0  0  0  0  0  0  0  0
   -1.3924    1.1961    0.9114 H   0  0  0  0  0  0  0  0  0  0  0  0
   -1.1581    1.5558   -0.6638 H   0  0  0  0  0  0  0  0  0  0  0  0
   -4.6214   -0.1464    3.7587 C   0  0  0  0  0  0  0  0  0  0  0  0
   -4.2577    0.4408    4.5134 H   0  0  0  0  0  0  0  0  0  0  0  0
   -4.3700   -1.1064    4.0048 H   0  0  0  0  0  0  0  0  0  0  0  0
   -5.7080   -0.0622    3.7433 H   0  0  0  0  0  0  0  0  0  0  0  0
   -3.8703    0.3199    2.1731 S   0  0  0  0  0  0  0  0  0  0  0  0
   -4.1856   -1.1656    1.2048 C   0  0  0  0  0  0  0  0  0  0  0  0
   -4.3208   -1.9402    1.8220 H   0  0  0  0  0  0  0  0  0  0  0  0
   -5.0058   -1.0310    0.6497 H   0  0  0  0  0  0  0  0  0  0  0  0
   -3.4032   -1.3441    0.6087 H   0  0  0  0  0  0  0  0  0  0  0  0
  1  5  1  0
  5  8  1  0
  1  2  1  0
  1  3  1  0
  1  4  1  0
  5  6  1  0
  5  7  1  0
  8  9  1  0
  8 10  1  0
  8 11  1  0
 12 16  1  0
 16 17  1  0
 12 13  1  0
 12 14  1  0
 12 15  1  0
 17 18  1  0
 17 19  1  0
 17 20  1  0
M  CHG  1   8   1
M  END
>  <PDB_ID>  (595) 
pdb1qlb

>  <RESIDUE_NAME>  (595) 
LYS   MET

>  <FRAG_NAME>  (595) 
ETAM   MSM

>  <FRAG_ATOM_NUM>  (595) 
fragi: 11  fragj: 9

>  <atom.prop.CHAIN_ID>  (595) 
A A A A A A A A A A A Z Z Z Z Z Z Z Z Z

>  <atom.prop.IS_HEAVY_ATOM>  (595) 
1 0 0 0 1 0 0 1 0 0 0 1 0 0 0 1 1 0 0 0

>  <DIFUSE_FUNC_ATOM>  (595) 
n/a

>  <FINAL_SINGLE_POINT_ENERGY>  (595) 
0

>  <NONCOV_INTER_ENERGY_QM>  (595) 
0

>  <FF_Energy>  (595) 
-4.45

>  <QM_Energy>  (595) 
-10.1

>  <source>  (595) 
ETAM_MSM

>  <Index>  (595) 
3508

$$$$
ETAM-pdb2wsa-A-LYS-250:MSM-pdb2wsa-A-MET-246
     RDKit          3D

 20 18  0  0  0  0  0  0  0  0999 V2000
    1.3905    0.7261   -0.0000 C   0  0  0  0  0  0  0  0  0  0  0  0
    1.5014    1.1737    0.8749 H   0  0  0  0  0  0  0  0  0  0  0  0
    1.3935    1.3807   -0.7420 H   0  0  0  0  0  0  0  0  0  0  0  0
    2.2209    0.0346   -0.1432 H   0  0  0  0  0  0  0  0  0  0  0  0
    0.0000    0.0000    0.0000 C   0  0  0  0  0  0  0  0  0  0  0  0
   -0.0054   -0.6678   -0.8164 H   0  0  0  0  0  0  0  0  0  0  0  0
   -0.0051   -0.6680    0.8165 H   0  0  0  0  0  0  0  0  0  0  0  0
   -1.3905    0.7086   -0.0000 N   0  0  0  0  0  4  0  0  0  0  0  0
   -1.2748    1.5852   -0.4405 H   0  0  0  0  0  0  0  0  0  0  0  0
   -2.0165    0.1315   -0.5018 H   0  0  0  0  0  0  0  0  0  0  0  0
   -1.6696    0.8108    0.9426 H   0  0  0  0  0  0  0  0  0  0  0  0
   -0.4306   -0.2372   -3.3413 C   0  0  0  0  0  0  0  0  0  0  0  0
   -0.7752    0.6930   -3.6530 H   0  0  0  0  0  0  0  0  0  0  0  0
   -0.4219   -0.1563   -2.3046 H   0  0  0  0  0  0  0  0  0  0  0  0
   -1.1904   -0.9725   -3.6064 H   0  0  0  0  0  0  0  0  0  0  0  0
    1.2499   -0.5410   -3.9728 S   0  0  0  0  0  0  0  0  0  0  0  0
    0.9985   -0.3759   -5.7233 C   0  0  0  0  0  0  0  0  0  0  0  0
    0.0566   -0.0820   -5.9083 H   0  0  0  0  0  0  0  0  0  0  0  0
    1.6319    0.3058   -6.0983 H   0  0  0  0  0  0  0  0  0  0  0  0
    1.1604   -1.2556   -6.1778 H   0  0  0  0  0  0  0  0  0  0  0  0
  1  5  1  0
  5  8  1  0
  1  2  1  0
  1  3  1  0
  1  4  1  0
  5  6  1  0
  5  7  1  0
  8  9  1  0
  8 10  1  0
  8 11  1  0
 12 16  1  0
 16 17  1  0
 12 13  1  0
 12 14  1  0
 12 15  1  0
 17 18  1  0
 17 19  1  0
 17 20  1  0
M  CHG  1   8   1
M  END
>  <PDB_ID>  (596) 
pdb2wsa

>  <RESIDUE_NAME>  (596) 
LYS   MET

>  <FRAG_NAME>  (596) 
ETAM   MSM

>  <FRAG_ATOM_NUM>  (596) 
fragi: 11  fragj: 9

>  <atom.prop.CHAIN_ID>  (596) 
A A A A A A A A A A A Z Z Z Z Z Z Z Z Z

>  <atom.prop.IS_HEAVY_ATOM>  (596) 
1 0 0 0 1 0 0 1 0 0 0 1 0 0 0 1 1 0 0 0

>  <DIFUSE_FUNC_ATOM>  (596) 
n/a

>  <FINAL_SINGLE_POINT_ENERGY>  (596) 
0

>  <NONCOV_INTER_ENERGY_QM>  (596) 
0

>  <FF_Energy>  (596) 
13.1

>  <QM_Energy>  (596) 
1.13

>  <source>  (596) 
ETAM_MSM

>  <Index>  (596) 
3509

$$$$
ETAM-pdb1qlb-A-LYS-467:MSM-pdb1qlb-A-MET-526
     RDKit          3D

 20 18  0  0  0  0  0  0  0  0999 V2000
    1.2169    0.8880    0.0000 C   0  0  0  0  0  0  0  0  0  0  0  0
    1.0321    1.6880    0.5872 H   0  0  0  0  0  0  0  0  0  0  0  0
    1.3732    1.2209   -0.9404 H   0  0  0  0  0  0  0  0  0  0  0  0
    2.1288    0.4057    0.3522 H   0  0  0  0  0  0  0  0  0  0  0  0
    0.0000    0.0000    0.0000 C   0  0  0  0  0  0  0  0  0  0  0  0
   -0.0097   -0.5545   -0.8160 H   0  0  0  0  0  0  0  0  0  0  0  0
   -0.0109   -0.5543    0.8166 H   0  0  0  0  0  0  0  0  0  0  0  0
   -1.2169    0.8867    0.0000 N   0  0  0  0  0  4  0  0  0  0  0  0
   -1.2639    1.3707    0.8697 H   0  0  0  0  0  0  0  0  0  0  0  0
   -1.1407    1.5390   -0.7495 H   0  0  0  0  0  0  0  0  0  0  0  0
   -2.0289    0.3205   -0.1203 H   0  0  0  0  0  0  0  0  0  0  0  0
    1.8913    5.9206   -1.6520 C   0  0  0  0  0  0  0  0  0  0  0  0
    1.6195    6.8482   -1.3214 H   0  0  0  0  0  0  0  0  0  0  0  0
    1.5522    5.8517   -2.6127 H   0  0  0  0  0  0  0  0  0  0  0  0
    2.9792    5.8533   -1.6561 H   0  0  0  0  0  0  0  0  0  0  0  0
    1.1421    4.6355   -0.6221 S   0  0  0  0  0  0  0  0  0  0  0  0
    0.6959    3.4807   -1.8406 C   0  0  0  0  0  0  0  0  0  0  0  0
   -0.3062    3.3506   -1.8671 H   0  0  0  0  0  0  0  0  0  0  0  0
    0.9931    3.7862   -2.7565 H   0  0  0  0  0  0  0  0  0  0  0  0
    1.1204    2.5814   -1.6607 H   0  0  0  0  0  0  0  0  0  0  0  0
  1  5  1  0
  5  8  1  0
  1  2  1  0
  1  3  1  0
  1  4  1  0
  5  6  1  0
  5  7  1  0
  8  9  1  0
  8 10  1  0
  8 11  1  0
 12 16  1  0
 16 17  1  0
 12 13  1  0
 12 14  1  0
 12 15  1  0
 17 18  1  0
 17 19  1  0
 17 20  1  0
M  CHG  1   8   1
M  END
>  <PDB_ID>  (597) 
pdb1qlb

>  <RESIDUE_NAME>  (597) 
LYS   MET

>  <FRAG_NAME>  (597) 
ETAM   MSM

>  <FRAG_ATOM_NUM>  (597) 
fragi: 11  fragj: 9

>  <atom.prop.CHAIN_ID>  (597) 
A A A A A A A A A A A Z Z Z Z Z Z Z Z Z

>  <atom.prop.IS_HEAVY_ATOM>  (597) 
1 0 0 0 1 0 0 1 0 0 0 1 0 0 0 1 1 0 0 0

>  <DIFUSE_FUNC_ATOM>  (597) 
n/a

>  <FINAL_SINGLE_POINT_ENERGY>  (597) 
0

>  <NONCOV_INTER_ENERGY_QM>  (597) 
0

>  <FF_Energy>  (597) 
16.72

>  <QM_Energy>  (597) 
0.81

>  <source>  (597) 
ETAM_MSM

>  <Index>  (597) 
3528

$$$$
ETAM-pdb2wwo-B-LYS-128:MSM-pdb2wwo-B-MET-9
     RDKit          3D

 20 18  0  0  0  0  0  0  0  0999 V2000
    1.2278    0.8934    0.0000 C   0  0  0  0  0  0  0  0  0  0  0  0
    2.0370    0.3272    0.1309 H   0  0  0  0  0  0  0  0  0  0  0  0
    1.1452    1.5517    0.7431 H   0  0  0  0  0  0  0  0  0  0  0  0
    1.3348    1.4390   -0.9375 H   0  0  0  0  0  0  0  0  0  0  0  0
    0.0000    0.0000    0.0000 C   0  0  0  0  0  0  0  0  0  0  0  0
    0.0170   -0.5730   -0.8167 H   0  0  0  0  0  0  0  0  0  0  0  0
    0.0163   -0.5730    0.8163 H   0  0  0  0  0  0  0  0  0  0  0  0
   -1.2278    0.8248   -0.0000 N   0  0  0  0  0  4  0  0  0  0  0  0
   -1.4237    1.1350    0.9314 H   0  0  0  0  0  0  0  0  0  0  0  0
   -1.0986    1.6198   -0.5939 H   0  0  0  0  0  0  0  0  0  0  0  0
   -1.9978    0.2809   -0.3368 H   0  0  0  0  0  0  0  0  0  0  0  0
   -4.3617    3.8038   -3.0475 C   0  0  0  0  0  0  0  0  0  0  0  0
   -4.7129    3.2130   -3.8124 H   0  0  0  0  0  0  0  0  0  0  0  0
   -4.3340    4.7560   -3.4347 H   0  0  0  0  0  0  0  0  0  0  0  0
   -5.0828    3.7802   -2.2305 H   0  0  0  0  0  0  0  0  0  0  0  0
   -2.7119    3.2765   -2.5459 S   0  0  0  0  0  0  0  0  0  0  0  0
   -2.2773    4.5834   -1.3774 C   0  0  0  0  0  0  0  0  0  0  0  0
   -2.5842    5.4628   -1.7390 H   0  0  0  0  0  0  0  0  0  0  0  0
   -2.7243    4.4036   -0.5030 H   0  0  0  0  0  0  0  0  0  0  0  0
   -1.2868    4.5966   -1.2534 H   0  0  0  0  0  0  0  0  0  0  0  0
  1  5  1  0
  5  8  1  0
  1  2  1  0
  1  3  1  0
  1  4  1  0
  5  6  1  0
  5  7  1  0
  8  9  1  0
  8 10  1  0
  8 11  1  0
 12 16  1  0
 16 17  1  0
 12 13  1  0
 12 14  1  0
 12 15  1  0
 17 18  1  0
 17 19  1  0
 17 20  1  0
M  CHG  1   8   1
M  END
>  <PDB_ID>  (598) 
pdb2wwo

>  <RESIDUE_NAME>  (598) 
LYS   MET

>  <FRAG_NAME>  (598) 
ETAM   MSM

>  <FRAG_ATOM_NUM>  (598) 
fragi: 11  fragj: 9

>  <atom.prop.CHAIN_ID>  (598) 
A A A A A A A A A A A Z Z Z Z Z Z Z Z Z

>  <atom.prop.IS_HEAVY_ATOM>  (598) 
1 0 0 0 1 0 0 1 0 0 0 1 0 0 0 1 1 0 0 0

>  <DIFUSE_FUNC_ATOM>  (598) 
n/a

>  <FINAL_SINGLE_POINT_ENERGY>  (598) 
0

>  <NONCOV_INTER_ENERGY_QM>  (598) 
0

>  <FF_Energy>  (598) 
-4.14

>  <QM_Energy>  (598) 
-9.24

>  <source>  (598) 
ETAM_MSM

>  <Index>  (598) 
3536

$$$$
ETAM-pdb2wr0-B-LYS-307:MSM-pdb2wr0-B-MET-388
     RDKit          3D

 20 18  0  0  0  0  0  0  0  0999 V2000
    1.2410    0.8656    0.0000 C   0  0  0  0  0  0  0  0  0  0  0  0
    2.0219    0.3008    0.2600 H   0  0  0  0  0  0  0  0  0  0  0  0
    1.1164    1.5985    0.6657 H   0  0  0  0  0  0  0  0  0  0  0  0
    1.4293    1.3028   -0.9806 H   0  0  0  0  0  0  0  0  0  0  0  0
    0.0000    0.0000    0.0000 C   0  0  0  0  0  0  0  0  0  0  0  0
    0.0057   -0.5825   -0.8159 H   0  0  0  0  0  0  0  0  0  0  0  0
    0.0047   -0.5826    0.8167 H   0  0  0  0  0  0  0  0  0  0  0  0
   -1.2410    0.8247   -0.0000 N   0  0  0  0  0  4  0  0  0  0  0  0
   -1.3293    1.2896   -0.8801 H   0  0  0  0  0  0  0  0  0  0  0  0
   -2.0322    0.2322    0.1468 H   0  0  0  0  0  0  0  0  0  0  0  0
   -1.1882    1.5021    0.7328 H   0  0  0  0  0  0  0  0  0  0  0  0
   -2.2884    3.0549   -4.0882 C   0  0  0  0  0  0  0  0  0  0  0  0
   -1.6627    3.8681   -4.0058 H   0  0  0  0  0  0  0  0  0  0  0  0
   -2.9918    3.1840   -3.3480 H   0  0  0  0  0  0  0  0  0  0  0  0
   -2.7933    3.1089   -5.0527 H   0  0  0  0  0  0  0  0  0  0  0  0
   -1.3750    1.5196   -3.8417 S   0  0  0  0  0  0  0  0  0  0  0  0
   -0.0918    1.6662   -5.0842 C   0  0  0  0  0  0  0  0  0  0  0  0
   -0.3816    2.3127   -5.7908 H   0  0  0  0  0  0  0  0  0  0  0  0
    0.7515    1.9964   -4.6579 H   0  0  0  0  0  0  0  0  0  0  0  0
    0.0750    0.7711   -5.5013 H   0  0  0  0  0  0  0  0  0  0  0  0
  1  5  1  0
  5  8  1  0
  1  2  1  0
  1  3  1  0
  1  4  1  0
  5  6  1  0
  5  7  1  0
  8  9  1  0
  8 10  1  0
  8 11  1  0
 12 16  1  0
 16 17  1  0
 12 13  1  0
 12 14  1  0
 12 15  1  0
 17 18  1  0
 17 19  1  0
 17 20  1  0
M  CHG  1   8   1
M  END
>  <PDB_ID>  (599) 
pdb2wr0

>  <RESIDUE_NAME>  (599) 
LYS   MET

>  <FRAG_NAME>  (599) 
ETAM   MSM

>  <FRAG_ATOM_NUM>  (599) 
fragi: 11  fragj: 9

>  <atom.prop.CHAIN_ID>  (599) 
A A A A A A A A A A A Z Z Z Z Z Z Z Z Z

>  <atom.prop.IS_HEAVY_ATOM>  (599) 
1 0 0 0 1 0 0 1 0 0 0 1 0 0 0 1 1 0 0 0

>  <DIFUSE_FUNC_ATOM>  (599) 
n/a

>  <FINAL_SINGLE_POINT_ENERGY>  (599) 
0

>  <NONCOV_INTER_ENERGY_QM>  (599) 
0

>  <FF_Energy>  (599) 
-4.75

>  <QM_Energy>  (599) 
-11.92

>  <source>  (599) 
ETAM_MSM

>  <Index>  (599) 
3547

$$$$
ETAM-pdb1qs1-C-LYS-2247:MSM-pdb1qs1-C-MET-2170
     RDKit          3D

 20 18  0  0  0  0  0  0  0  0999 V2000
    1.2531    0.8662    0.0000 C   0  0  0  0  0  0  0  0  0  0  0  0
    1.2394    1.4468    0.8083 H   0  0  0  0  0  0  0  0  0  0  0  0
    1.2551    1.4243   -0.8250 H   0  0  0  0  0  0  0  0  0  0  0  0
    2.1643    0.2682    0.0177 H   0  0  0  0  0  0  0  0  0  0  0  0
    0.0000    0.0000    0.0000 C   0  0  0  0  0  0  0  0  0  0  0  0
    0.0081   -0.5845   -0.8162 H   0  0  0  0  0  0  0  0  0  0  0  0
    0.0084   -0.5846    0.8160 H   0  0  0  0  0  0  0  0  0  0  0  0
   -1.2531    0.8178    0.0000 N   0  0  0  0  0  4  0  0  0  0  0  0
   -1.7338    0.6803    0.8639 H   0  0  0  0  0  0  0  0  0  0  0  0
   -1.0151    1.7821   -0.1038 H   0  0  0  0  0  0  0  0  0  0  0  0
   -1.8326    0.5292   -0.7593 H   0  0  0  0  0  0  0  0  0  0  0  0
   -2.1414   -4.0442    0.7007 C   0  0  0  0  0  0  0  0  0  0  0  0
   -2.7695   -4.4845    1.3731 H   0  0  0  0  0  0  0  0  0  0  0  0
   -1.4694   -4.7612    0.4262 H   0  0  0  0  0  0  0  0  0  0  0  0
   -2.7180   -3.7496   -0.1761 H   0  0  0  0  0  0  0  0  0  0  0  0
   -1.3127   -2.6346    1.4257 S   0  0  0  0  0  0  0  0  0  0  0  0
   -0.4595   -3.4313    2.7834 C   0  0  0  0  0  0  0  0  0  0  0  0
    0.4331   -2.9989    2.9198 H   0  0  0  0  0  0  0  0  0  0  0  0
   -1.0020   -3.3412    3.6205 H   0  0  0  0  0  0  0  0  0  0  0  0
   -0.3297   -4.4020    2.5758 H   0  0  0  0  0  0  0  0  0  0  0  0
  1  5  1  0
  5  8  1  0
  1  2  1  0
  1  3  1  0
  1  4  1  0
  5  6  1  0
  5  7  1  0
  8  9  1  0
  8 10  1  0
  8 11  1  0
 12 16  1  0
 16 17  1  0
 12 13  1  0
 12 14  1  0
 12 15  1  0
 17 18  1  0
 17 19  1  0
 17 20  1  0
M  CHG  1   8   1
M  END
>  <PDB_ID>  (600) 
pdb1qs1

>  <RESIDUE_NAME>  (600) 
LYS   MET

>  <FRAG_NAME>  (600) 
ETAM   MSM

>  <FRAG_ATOM_NUM>  (600) 
fragi: 11  fragj: 9

>  <atom.prop.CHAIN_ID>  (600) 
A A A A A A A A A A A Z Z Z Z Z Z Z Z Z

>  <atom.prop.IS_HEAVY_ATOM>  (600) 
1 0 0 0 1 0 0 1 0 0 0 1 0 0 0 1 1 0 0 0

>  <DIFUSE_FUNC_ATOM>  (600) 
n/a

>  <FINAL_SINGLE_POINT_ENERGY>  (600) 
0

>  <NONCOV_INTER_ENERGY_QM>  (600) 
0

>  <FF_Energy>  (600) 
-2.31

>  <QM_Energy>  (600) 
-9.04

>  <source>  (600) 
ETAM_MSM

>  <Index>  (600) 
3554

$$$$
ETAM-pdb2wv0-C-LYS-24:MSM-pdb2wv0-C-MET-98
     RDKit          3D

 20 18  0  0  0  0  0  0  0  0999 V2000
    1.2317    0.8764   -0.0000 C   0  0  0  0  0  0  0  0  0  0  0  0
    1.2147    1.4545    0.8167 H   0  0  0  0  0  0  0  0  0  0  0  0
    1.2152    1.4535   -0.8164 H   0  0  0  0  0  0  0  0  0  0  0  0
    2.1561    0.2988    0.0006 H   0  0  0  0  0  0  0  0  0  0  0  0
    0.0000    0.0000    0.0000 C   0  0  0  0  0  0  0  0  0  0  0  0
    0.0089   -0.5775   -0.8159 H   0  0  0  0  0  0  0  0  0  0  0  0
    0.0086   -0.5776    0.8163 H   0  0  0  0  0  0  0  0  0  0  0  0
   -1.2317    0.8286    0.0000 N   0  0  0  0  0  4  0  0  0  0  0  0
   -1.6681    0.7768   -0.8988 H   0  0  0  0  0  0  0  0  0  0  0  0
   -1.8630    0.4873    0.6964 H   0  0  0  0  0  0  0  0  0  0  0  0
   -0.9940    1.7790    0.2009 H   0  0  0  0  0  0  0  0  0  0  0  0
   -3.3091   -0.3276   -1.5327 C   0  0  0  0  0  0  0  0  0  0  0  0
   -2.9107    0.0470   -0.6619 H   0  0  0  0  0  0  0  0  0  0  0  0
   -2.5192   -0.7693   -2.0209 H   0  0  0  0  0  0  0  0  0  0  0  0
   -4.0162   -1.1126   -1.2643 H   0  0  0  0  0  0  0  0  0  0  0  0
   -4.0298    0.9955   -2.5356 S   0  0  0  0  0  0  0  0  0  0  0  0
   -4.0582    2.2109   -1.2867 C   0  0  0  0  0  0  0  0  0  0  0  0
   -4.5747    3.0247   -1.5873 H   0  0  0  0  0  0  0  0  0  0  0  0
   -4.4955    1.8561   -0.4494 H   0  0  0  0  0  0  0  0  0  0  0  0
   -3.1225    2.5052   -1.0500 H   0  0  0  0  0  0  0  0  0  0  0  0
  1  5  1  0
  5  8  1  0
  1  2  1  0
  1  3  1  0
  1  4  1  0
  5  6  1  0
  5  7  1  0
  8  9  1  0
  8 10  1  0
  8 11  1  0
 12 16  1  0
 16 17  1  0
 12 13  1  0
 12 14  1  0
 12 15  1  0
 17 18  1  0
 17 19  1  0
 17 20  1  0
M  CHG  1   8   1
M  END
>  <PDB_ID>  (601) 
pdb2wv0

>  <RESIDUE_NAME>  (601) 
LYS   MET

>  <FRAG_NAME>  (601) 
ETAM   MSM

>  <FRAG_ATOM_NUM>  (601) 
fragi: 11  fragj: 9

>  <atom.prop.CHAIN_ID>  (601) 
A A A A A A A A A A A Z Z Z Z Z Z Z Z Z

>  <atom.prop.IS_HEAVY_ATOM>  (601) 
1 0 0 0 1 0 0 1 0 0 0 1 0 0 0 1 1 0 0 0

>  <DIFUSE_FUNC_ATOM>  (601) 
n/a

>  <FINAL_SINGLE_POINT_ENERGY>  (601) 
0

>  <NONCOV_INTER_ENERGY_QM>  (601) 
0

>  <FF_Energy>  (601) 
26.45

>  <QM_Energy>  (601) 
10.27

>  <source>  (601) 
ETAM_MSM

>  <Index>  (601) 
3559

$$$$
ETAM-pdb2wy3-B-LYS-123:MSM-pdb2wy3-B-MET-116
     RDKit          3D

 20 18  0  0  0  0  0  0  0  0999 V2000
    1.2338    0.8865    0.0000 C   0  0  0  0  0  0  0  0  0  0  0  0
    1.1433    1.5581    0.7279 H   0  0  0  0  0  0  0  0  0  0  0  0
    1.3007    1.3384   -0.8832 H   0  0  0  0  0  0  0  0  0  0  0  0
    2.1404    0.3053    0.1688 H   0  0  0  0  0  0  0  0  0  0  0  0
    0.0000    0.0000    0.0000 C   0  0  0  0  0  0  0  0  0  0  0  0
    0.0124   -0.5737   -0.8160 H   0  0  0  0  0  0  0  0  0  0  0  0
    0.0115   -0.5744    0.8165 H   0  0  0  0  0  0  0  0  0  0  0  0
   -1.2338    0.8289   -0.0000 N   0  0  0  0  0  4  0  0  0  0  0  0
   -1.2144    1.4544    0.7803 H   0  0  0  0  0  0  0  0  0  0  0  0
   -1.2809    1.3549   -0.8488 H   0  0  0  0  0  0  0  0  0  0  0  0
   -2.0343    0.2334    0.0687 H   0  0  0  0  0  0  0  0  0  0  0  0
   -0.0293    1.1403    4.4071 C   0  0  0  0  0  0  0  0  0  0  0  0
   -0.3647    2.0738    4.1409 H   0  0  0  0  0  0  0  0  0  0  0  0
    0.9504    1.1079    4.1005 H   0  0  0  0  0  0  0  0  0  0  0  0
   -0.0559    1.0594    5.4937 H   0  0  0  0  0  0  0  0  0  0  0  0
   -0.9967   -0.1421    3.5776 S   0  0  0  0  0  0  0  0  0  0  0  0
   -2.6880    0.3848    3.8917 C   0  0  0  0  0  0  0  0  0  0  0  0
   -3.2527    0.1837    3.0915 H   0  0  0  0  0  0  0  0  0  0  0  0
   -3.0469   -0.1053    4.6857 H   0  0  0  0  0  0  0  0  0  0  0  0
   -2.7015    1.3680    4.0715 H   0  0  0  0  0  0  0  0  0  0  0  0
  1  5  1  0
  5  8  1  0
  1  2  1  0
  1  3  1  0
  1  4  1  0
  5  6  1  0
  5  7  1  0
  8  9  1  0
  8 10  1  0
  8 11  1  0
 12 16  1  0
 16 17  1  0
 12 13  1  0
 12 14  1  0
 12 15  1  0
 17 18  1  0
 17 19  1  0
 17 20  1  0
M  CHG  1   8   1
M  END
>  <PDB_ID>  (602) 
pdb2wy3

>  <RESIDUE_NAME>  (602) 
LYS   MET

>  <FRAG_NAME>  (602) 
ETAM   MSM

>  <FRAG_ATOM_NUM>  (602) 
fragi: 11  fragj: 9

>  <atom.prop.CHAIN_ID>  (602) 
A A A A A A A A A A A Z Z Z Z Z Z Z Z Z

>  <atom.prop.IS_HEAVY_ATOM>  (602) 
1 0 0 0 1 0 0 1 0 0 0 1 0 0 0 1 1 0 0 0

>  <DIFUSE_FUNC_ATOM>  (602) 
n/a

>  <FINAL_SINGLE_POINT_ENERGY>  (602) 
0

>  <NONCOV_INTER_ENERGY_QM>  (602) 
0

>  <FF_Energy>  (602) 
-4.37

>  <QM_Energy>  (602) 
-10.79

>  <source>  (602) 
ETAM_MSM

>  <Index>  (602) 
3562

$$$$
ETAM-pdb2wv0-D-LYS-24:MSM-pdb2wv0-D-MET-98
     RDKit          3D

 20 18  0  0  0  0  0  0  0  0999 V2000
    1.2319    0.8746    0.0000 C   0  0  0  0  0  0  0  0  0  0  0  0
    1.2157    1.4525    0.8163 H   0  0  0  0  0  0  0  0  0  0  0  0
    1.2154    1.4525   -0.8163 H   0  0  0  0  0  0  0  0  0  0  0  0
    2.1560    0.2965    0.0008 H   0  0  0  0  0  0  0  0  0  0  0  0
    0.0000    0.0000    0.0000 C   0  0  0  0  0  0  0  0  0  0  0  0
    0.0078   -0.5782   -0.8161 H   0  0  0  0  0  0  0  0  0  0  0  0
    0.0068   -0.5778    0.8163 H   0  0  0  0  0  0  0  0  0  0  0  0
   -1.2319    0.8286   -0.0000 N   0  0  0  0  0  4  0  0  0  0  0  0
   -1.2287    1.4298   -0.8001 H   0  0  0  0  0  0  0  0  0  0  0  0
   -2.0339    0.2324   -0.0338 H   0  0  0  0  0  0  0  0  0  0  0  0
   -1.2616    1.3816    0.8317 H   0  0  0  0  0  0  0  0  0  0  0  0
   -3.2167   -0.9387   -1.7898 C   0  0  0  0  0  0  0  0  0  0  0  0
   -2.6905   -0.7028   -0.9230 H   0  0  0  0  0  0  0  0  0  0  0  0
   -2.5537   -1.5485   -2.3135 H   0  0  0  0  0  0  0  0  0  0  0  0
   -4.0656   -1.5563   -1.4964 H   0  0  0  0  0  0  0  0  0  0  0  0
   -3.5970    0.5546   -2.7355 S   0  0  0  0  0  0  0  0  0  0  0  0
   -3.5388    1.6577   -1.3638 C   0  0  0  0  0  0  0  0  0  0  0  0
   -2.6117    2.0349   -1.2563 H   0  0  0  0  0  0  0  0  0  0  0  0
   -4.1805    2.4201   -1.4995 H   0  0  0  0  0  0  0  0  0  0  0  0
   -3.7887    1.1768   -0.5154 H   0  0  0  0  0  0  0  0  0  0  0  0
  1  5  1  0
  5  8  1  0
  1  2  1  0
  1  3  1  0
  1  4  1  0
  5  6  1  0
  5  7  1  0
  8  9  1  0
  8 10  1  0
  8 11  1  0
 12 16  1  0
 16 17  1  0
 12 13  1  0
 12 14  1  0
 12 15  1  0
 17 18  1  0
 17 19  1  0
 17 20  1  0
M  CHG  1   8   1
M  END
>  <PDB_ID>  (603) 
pdb2wv0

>  <RESIDUE_NAME>  (603) 
LYS   MET

>  <FRAG_NAME>  (603) 
ETAM   MSM

>  <FRAG_ATOM_NUM>  (603) 
fragi: 11  fragj: 9

>  <atom.prop.CHAIN_ID>  (603) 
A A A A A A A A A A A Z Z Z Z Z Z Z Z Z

>  <atom.prop.IS_HEAVY_ATOM>  (603) 
1 0 0 0 1 0 0 1 0 0 0 1 0 0 0 1 1 0 0 0

>  <DIFUSE_FUNC_ATOM>  (603) 
n/a

>  <FINAL_SINGLE_POINT_ENERGY>  (603) 
0

>  <NONCOV_INTER_ENERGY_QM>  (603) 
0

>  <FF_Energy>  (603) 
14.06

>  <QM_Energy>  (603) 
8.26

>  <source>  (603) 
ETAM_MSM

>  <Index>  (603) 
3567

$$$$
ETAM-pdb2x27-X-LYS-209:MSM-pdb2x27-X-MET-158
     RDKit          3D

 20 18  0  0  0  0  0  0  0  0999 V2000
    1.2415    0.8734    0.0000 C   0  0  0  0  0  0  0  0  0  0  0  0
    1.2811    1.3703    0.8622 H   0  0  0  0  0  0  0  0  0  0  0  0
    1.1813    1.5107   -0.7626 H   0  0  0  0  0  0  0  0  0  0  0  0
    2.1498    0.2800   -0.1060 H   0  0  0  0  0  0  0  0  0  0  0  0
    0.0000    0.0000    0.0000 C   0  0  0  0  0  0  0  0  0  0  0  0
    0.0108   -0.5820   -0.8163 H   0  0  0  0  0  0  0  0  0  0  0  0
    0.0101   -0.5817    0.8167 H   0  0  0  0  0  0  0  0  0  0  0  0
   -1.2415    0.8192   -0.0000 N   0  0  0  0  0  4  0  0  0  0  0  0
   -1.3639    1.2365    0.9006 H   0  0  0  0  0  0  0  0  0  0  0  0
   -1.1672    1.5354   -0.6931 H   0  0  0  0  0  0  0  0  0  0  0  0
   -2.0254    0.2340   -0.2069 H   0  0  0  0  0  0  0  0  0  0  0  0
   -4.0025   -1.4227    2.6716 C   0  0  0  0  0  0  0  0  0  0  0  0
   -4.7481   -1.8184    2.0691 H   0  0  0  0  0  0  0  0  0  0  0  0
   -4.0693   -0.4007    2.5094 H   0  0  0  0  0  0  0  0  0  0  0  0
   -4.2675   -1.6194    3.7105 H   0  0  0  0  0  0  0  0  0  0  0  0
   -2.3837   -2.0394    2.1647 S   0  0  0  0  0  0  0  0  0  0  0  0
   -1.3236   -1.1293    3.2877 C   0  0  0  0  0  0  0  0  0  0  0  0
   -1.8552   -0.8273    4.0801 H   0  0  0  0  0  0  0  0  0  0  0  0
   -0.5752   -1.7191    3.5947 H   0  0  0  0  0  0  0  0  0  0  0  0
   -0.9449   -0.3301    2.8183 H   0  0  0  0  0  0  0  0  0  0  0  0
  1  5  1  0
  5  8  1  0
  1  2  1  0
  1  3  1  0
  1  4  1  0
  5  6  1  0
  5  7  1  0
  8  9  1  0
  8 10  1  0
  8 11  1  0
 12 16  1  0
 16 17  1  0
 12 13  1  0
 12 14  1  0
 12 15  1  0
 17 18  1  0
 17 19  1  0
 17 20  1  0
M  CHG  1   8   1
M  END
>  <PDB_ID>  (604) 
pdb2x27

>  <RESIDUE_NAME>  (604) 
LYS   MET

>  <FRAG_NAME>  (604) 
ETAM   MSM

>  <FRAG_ATOM_NUM>  (604) 
fragi: 11  fragj: 9

>  <atom.prop.CHAIN_ID>  (604) 
A A A A A A A A A A A Z Z Z Z Z Z Z Z Z

>  <atom.prop.IS_HEAVY_ATOM>  (604) 
1 0 0 0 1 0 0 1 0 0 0 1 0 0 0 1 1 0 0 0

>  <DIFUSE_FUNC_ATOM>  (604) 
n/a

>  <FINAL_SINGLE_POINT_ENERGY>  (604) 
0

>  <NONCOV_INTER_ENERGY_QM>  (604) 
0

>  <FF_Energy>  (604) 
-3.04

>  <QM_Energy>  (604) 
-8.23

>  <source>  (604) 
ETAM_MSM

>  <Index>  (604) 
3569

$$$$
ETAM-pdb2wv0-E-LYS-24:MSM-pdb2wv0-E-MET-98
     RDKit          3D

 20 18  0  0  0  0  0  0  0  0999 V2000
    1.2321    0.8721    0.0000 C   0  0  0  0  0  0  0  0  0  0  0  0
    1.2157    1.4530    0.8161 H   0  0  0  0  0  0  0  0  0  0  0  0
    1.2147    1.4516   -0.8171 H   0  0  0  0  0  0  0  0  0  0  0  0
    2.1567    0.2951    0.0001 H   0  0  0  0  0  0  0  0  0  0  0  0
    0.0000    0.0000    0.0000 C   0  0  0  0  0  0  0  0  0  0  0  0
    0.0073   -0.5801   -0.8159 H   0  0  0  0  0  0  0  0  0  0  0  0
    0.0071   -0.5792    0.8170 H   0  0  0  0  0  0  0  0  0  0  0  0
   -1.2321    0.8284    0.0000 N   0  0  0  0  0  4  0  0  0  0  0  0
   -1.9236    0.3961    0.5783 H   0  0  0  0  0  0  0  0  0  0  0  0
   -1.0211    1.7390    0.3545 H   0  0  0  0  0  0  0  0  0  0  0  0
   -1.5805    0.9066   -0.9345 H   0  0  0  0  0  0  0  0  0  0  0  0
   -2.9251   -1.0395   -2.1956 C   0  0  0  0  0  0  0  0  0  0  0  0
   -2.2549   -0.8373   -1.4330 H   0  0  0  0  0  0  0  0  0  0  0  0
   -2.3935   -1.6416   -2.8472 H   0  0  0  0  0  0  0  0  0  0  0  0
   -3.7386   -1.6326   -1.7777 H   0  0  0  0  0  0  0  0  0  0  0  0
   -3.4285    0.5066   -3.0266 S   0  0  0  0  0  0  0  0  0  0  0  0
   -3.3138    1.6113   -1.6399 C   0  0  0  0  0  0  0  0  0  0  0  0
   -2.5217    2.2175   -1.7495 H   0  0  0  0  0  0  0  0  0  0  0  0
   -4.1451    2.1694   -1.5758 H   0  0  0  0  0  0  0  0  0  0  0  0
   -3.2074    1.0862   -0.7912 H   0  0  0  0  0  0  0  0  0  0  0  0
  1  5  1  0
  5  8  1  0
  1  2  1  0
  1  3  1  0
  1  4  1  0
  5  6  1  0
  5  7  1  0
  8  9  1  0
  8 10  1  0
  8 11  1  0
 12 16  1  0
 16 17  1  0
 12 13  1  0
 12 14  1  0
 12 15  1  0
 17 18  1  0
 17 19  1  0
 17 20  1  0
M  CHG  1   8   1
M  END
>  <PDB_ID>  (605) 
pdb2wv0

>  <RESIDUE_NAME>  (605) 
LYS   MET

>  <FRAG_NAME>  (605) 
ETAM   MSM

>  <FRAG_ATOM_NUM>  (605) 
fragi: 11  fragj: 9

>  <atom.prop.CHAIN_ID>  (605) 
A A A A A A A A A A A Z Z Z Z Z Z Z Z Z

>  <atom.prop.IS_HEAVY_ATOM>  (605) 
1 0 0 0 1 0 0 1 0 0 0 1 0 0 0 1 1 0 0 0

>  <DIFUSE_FUNC_ATOM>  (605) 
n/a

>  <FINAL_SINGLE_POINT_ENERGY>  (605) 
0

>  <NONCOV_INTER_ENERGY_QM>  (605) 
0

>  <FF_Energy>  (605) 
15.68

>  <QM_Energy>  (605) 
8.04

>  <source>  (605) 
ETAM_MSM

>  <Index>  (605) 
3580

$$$$
ETAM-pdb1qs1-B-LYS-1247:MSM-pdb1qs1-B-MET-1170
     RDKit          3D

 20 18  0  0  0  0  0  0  0  0999 V2000
    1.2396    0.8667   -0.0000 C   0  0  0  0  0  0  0  0  0  0  0  0
    1.2034    1.4794    0.7823 H   0  0  0  0  0  0  0  0  0  0  0  0
    1.2676    1.3871   -0.8464 H   0  0  0  0  0  0  0  0  0  0  0  0
    2.1445    0.2632    0.0708 H   0  0  0  0  0  0  0  0  0  0  0  0
    0.0000    0.0000    0.0000 C   0  0  0  0  0  0  0  0  0  0  0  0
    0.0102   -0.5850   -0.8162 H   0  0  0  0  0  0  0  0  0  0  0  0
    0.0094   -0.5861    0.8167 H   0  0  0  0  0  0  0  0  0  0  0  0
   -1.2396    0.8142   -0.0000 N   0  0  0  0  0  4  0  0  0  0  0  0
   -1.9743    0.3041    0.4491 H   0  0  0  0  0  0  0  0  0  0  0  0
   -1.0781    1.6697    0.4939 H   0  0  0  0  0  0  0  0  0  0  0  0
   -1.5046    1.0193   -0.9429 H   0  0  0  0  0  0  0  0  0  0  0  0
    0.4766   -3.6690    2.1935 C   0  0  0  0  0  0  0  0  0  0  0  0
    0.2991   -4.0134    3.1430 H   0  0  0  0  0  0  0  0  0  0  0  0
    1.2268   -4.2614    1.8214 H   0  0  0  0  0  0  0  0  0  0  0  0
   -0.4201   -3.8270    1.5943 H   0  0  0  0  0  0  0  0  0  0  0  0
    0.9760   -1.9486    2.2215 S   0  0  0  0  0  0  0  0  0  0  0  0
    2.4684   -2.0618    3.1770 C   0  0  0  0  0  0  0  0  0  0  0  0
    3.1030   -1.3318    2.9102 H   0  0  0  0  0  0  0  0  0  0  0  0
    2.2585   -1.9694    4.1538 H   0  0  0  0  0  0  0  0  0  0  0  0
    2.9094   -2.9497    3.0210 H   0  0  0  0  0  0  0  0  0  0  0  0
  1  5  1  0
  5  8  1  0
  1  2  1  0
  1  3  1  0
  1  4  1  0
  5  6  1  0
  5  7  1  0
  8  9  1  0
  8 10  1  0
  8 11  1  0
 12 16  1  0
 16 17  1  0
 12 13  1  0
 12 14  1  0
 12 15  1  0
 17 18  1  0
 17 19  1  0
 17 20  1  0
M  CHG  1   8   1
M  END
>  <PDB_ID>  (606) 
pdb1qs1

>  <RESIDUE_NAME>  (606) 
LYS   MET

>  <FRAG_NAME>  (606) 
ETAM   MSM

>  <FRAG_ATOM_NUM>  (606) 
fragi: 11  fragj: 9

>  <atom.prop.CHAIN_ID>  (606) 
A A A A A A A A A A A Z Z Z Z Z Z Z Z Z

>  <atom.prop.IS_HEAVY_ATOM>  (606) 
1 0 0 0 1 0 0 1 0 0 0 1 0 0 0 1 1 0 0 0

>  <DIFUSE_FUNC_ATOM>  (606) 
n/a

>  <FINAL_SINGLE_POINT_ENERGY>  (606) 
0

>  <NONCOV_INTER_ENERGY_QM>  (606) 
0

>  <FF_Energy>  (606) 
14.01

>  <QM_Energy>  (606) 
-5.54

>  <source>  (606) 
ETAM_MSM

>  <Index>  (606) 
3581

$$$$
ETAM-pdb1qyd-B-LYS-266:MSM-pdb1qyd-B-MET-258
     RDKit          3D

 20 18  0  0  0  0  0  0  0  0999 V2000
    1.2294    0.9045    0.0000 C   0  0  0  0  0  0  0  0  0  0  0  0
    2.0444    0.3341   -0.0238 H   0  0  0  0  0  0  0  0  0  0  0  0
    1.2186    1.4565    0.8281 H   0  0  0  0  0  0  0  0  0  0  0  0
    1.2486    1.5718   -0.8617 H   0  0  0  0  0  0  0  0  0  0  0  0
    0.0000    0.0000    0.0000 C   0  0  0  0  0  0  0  0  0  0  0  0
    0.0454   -0.5885   -0.8162 H   0  0  0  0  0  0  0  0  0  0  0  0
    0.0453   -0.5889    0.8163 H   0  0  0  0  0  0  0  0  0  0  0  0
   -1.2294    0.7642   -0.0000 N   0  0  0  0  0  4  0  0  0  0  0  0
   -1.9722    0.2360    0.4283 H   0  0  0  0  0  0  0  0  0  0  0  0
   -1.1110    1.6212    0.5138 H   0  0  0  0  0  0  0  0  0  0  0  0
   -1.5019    0.9926   -0.9419 H   0  0  0  0  0  0  0  0  0  0  0  0
   -1.4191    2.0701   -4.3745 C   0  0  0  0  0  0  0  0  0  0  0  0
   -0.4814    1.9035   -4.0798 H   0  0  0  0  0  0  0  0  0  0  0  0
   -1.5431    3.0395   -4.5767 H   0  0  0  0  0  0  0  0  0  0  0  0
   -1.6266    1.4834   -5.2694 H   0  0  0  0  0  0  0  0  0  0  0  0
   -2.5917    1.5210   -3.1223 S   0  0  0  0  0  0  0  0  0  0  0  0
   -3.8325    2.7289   -3.5247 C   0  0  0  0  0  0  0  0  0  0  0  0
   -4.5802    2.6876   -2.8571 H   0  0  0  0  0  0  0  0  0  0  0  0
   -3.4330    3.6492   -3.5098 H   0  0  0  0  0  0  0  0  0  0  0  0
   -4.2021    2.5489   -4.4404 H   0  0  0  0  0  0  0  0  0  0  0  0
  1  5  1  0
  5  8  1  0
  1  2  1  0
  1  3  1  0
  1  4  1  0
  5  6  1  0
  5  7  1  0
  8  9  1  0
  8 10  1  0
  8 11  1  0
 12 16  1  0
 16 17  1  0
 12 13  1  0
 12 14  1  0
 12 15  1  0
 17 18  1  0
 17 19  1  0
 17 20  1  0
M  CHG  1   8   1
M  END
>  <PDB_ID>  (607) 
pdb1qyd

>  <RESIDUE_NAME>  (607) 
LYS   MET

>  <FRAG_NAME>  (607) 
ETAM   MSM

>  <FRAG_ATOM_NUM>  (607) 
fragi: 11  fragj: 9

>  <atom.prop.CHAIN_ID>  (607) 
A A A A A A A A A A A Z Z Z Z Z Z Z Z Z

>  <atom.prop.IS_HEAVY_ATOM>  (607) 
1 0 0 0 1 0 0 1 0 0 0 1 0 0 0 1 1 0 0 0

>  <DIFUSE_FUNC_ATOM>  (607) 
n/a

>  <FINAL_SINGLE_POINT_ENERGY>  (607) 
0

>  <NONCOV_INTER_ENERGY_QM>  (607) 
0

>  <FF_Energy>  (607) 
-5.66

>  <QM_Energy>  (607) 
-15.35

>  <source>  (607) 
ETAM_MSM

>  <Index>  (607) 
3586

$$$$
ETAM-pdb2x5p-A-LYS-31:MSM-pdb2x5p-A-MET-115
     RDKit          3D

 20 18  0  0  0  0  0  0  0  0999 V2000
    1.2540    0.7586   -0.0000 C   0  0  0  0  0  0  0  0  0  0  0  0
    2.0395    0.1123   -0.0997 H   0  0  0  0  0  0  0  0  0  0  0  0
    1.3732    1.2135    0.9064 H   0  0  0  0  0  0  0  0  0  0  0  0
    1.3510    1.5213   -0.7726 H   0  0  0  0  0  0  0  0  0  0  0  0
    0.0000    0.0000    0.0000 C   0  0  0  0  0  0  0  0  0  0  0  0
   -0.0329   -0.6224   -0.8155 H   0  0  0  0  0  0  0  0  0  0  0  0
   -0.0338   -0.6220    0.8172 H   0  0  0  0  0  0  0  0  0  0  0  0
   -1.2540    0.8133   -0.0000 N   0  0  0  0  0  4  0  0  0  0  0  0
   -1.0215    1.7748    0.1292 H   0  0  0  0  0  0  0  0  0  0  0  0
   -1.7239    0.6930   -0.8733 H   0  0  0  0  0  0  0  0  0  0  0  0
   -1.8442    0.5057    0.7454 H   0  0  0  0  0  0  0  0  0  0  0  0
   -0.3831   -3.2001   -0.0181 C   0  0  0  0  0  0  0  0  0  0  0  0
   -1.0231   -2.3964   -0.0798 H   0  0  0  0  0  0  0  0  0  0  0  0
   -0.9962   -4.0202    0.0858 H   0  0  0  0  0  0  0  0  0  0  0  0
    0.1498   -3.2868   -0.9651 H   0  0  0  0  0  0  0  0  0  0  0  0
    0.7109   -3.0387    1.3943 S   0  0  0  0  0  0  0  0  0  0  0  0
    1.1627   -4.7590    1.7102 C   0  0  0  0  0  0  0  0  0  0  0  0
    0.3610   -5.3392    1.5769 H   0  0  0  0  0  0  0  0  0  0  0  0
    1.8844   -5.0305    1.0757 H   0  0  0  0  0  0  0  0  0  0  0  0
    1.4889   -4.8448    2.6498 H   0  0  0  0  0  0  0  0  0  0  0  0
  1  5  1  0
  5  8  1  0
  1  2  1  0
  1  3  1  0
  1  4  1  0
  5  6  1  0
  5  7  1  0
  8  9  1  0
  8 10  1  0
  8 11  1  0
 12 16  1  0
 16 17  1  0
 12 13  1  0
 12 14  1  0
 12 15  1  0
 17 18  1  0
 17 19  1  0
 17 20  1  0
M  CHG  1   8   1
M  END
>  <PDB_ID>  (608) 
pdb2x5p

>  <RESIDUE_NAME>  (608) 
LYS   MET

>  <FRAG_NAME>  (608) 
ETAM   MSM

>  <FRAG_ATOM_NUM>  (608) 
fragi: 11  fragj: 9

>  <atom.prop.CHAIN_ID>  (608) 
A A A A A A A A A A A Z Z Z Z Z Z Z Z Z

>  <atom.prop.IS_HEAVY_ATOM>  (608) 
1 0 0 0 1 0 0 1 0 0 0 1 0 0 0 1 1 0 0 0

>  <DIFUSE_FUNC_ATOM>  (608) 
n/a

>  <FINAL_SINGLE_POINT_ENERGY>  (608) 
0

>  <NONCOV_INTER_ENERGY_QM>  (608) 
0

>  <FF_Energy>  (608) 
0.76

>  <QM_Energy>  (608) 
-4.34

>  <source>  (608) 
ETAM_MSM

>  <Index>  (608) 
3605

$$$$
ETAM-pdb2wv0-G-LYS-24:MSM-pdb2wv0-G-MET-98
     RDKit          3D

 20 18  0  0  0  0  0  0  0  0999 V2000
    1.2318    0.8723    0.0000 C   0  0  0  0  0  0  0  0  0  0  0  0
    1.2154    1.4514    0.8160 H   0  0  0  0  0  0  0  0  0  0  0  0
    1.2149    1.4512   -0.8176 H   0  0  0  0  0  0  0  0  0  0  0  0
    2.1558    0.2942    0.0004 H   0  0  0  0  0  0  0  0  0  0  0  0
    0.0000    0.0000    0.0000 C   0  0  0  0  0  0  0  0  0  0  0  0
    0.0060   -0.5788   -0.8153 H   0  0  0  0  0  0  0  0  0  0  0  0
    0.0055   -0.5784    0.8173 H   0  0  0  0  0  0  0  0  0  0  0  0
   -1.2318    0.8293    0.0000 N   0  0  0  0  0  4  0  0  0  0  0  0
   -1.0275    1.7288   -0.3858 H   0  0  0  0  0  0  0  0  0  0  0  0
   -1.9349    0.3808   -0.5522 H   0  0  0  0  0  0  0  0  0  0  0  0
   -1.5629    0.9362    0.9376 H   0  0  0  0  0  0  0  0  0  0  0  0
   -2.9239    0.2705   -1.9528 C   0  0  0  0  0  0  0  0  0  0  0  0
   -2.8670    0.4243   -0.9296 H   0  0  0  0  0  0  0  0  0  0  0  0
   -1.9542    0.0236   -2.2236 H   0  0  0  0  0  0  0  0  0  0  0  0
   -3.5623   -0.5941   -2.1346 H   0  0  0  0  0  0  0  0  0  0  0  0
   -3.4427    1.7914   -2.7896 S   0  0  0  0  0  0  0  0  0  0  0  0
   -3.0474    2.9813   -1.5221 C   0  0  0  0  0  0  0  0  0  0  0  0
   -3.5157    3.8468   -1.7106 H   0  0  0  0  0  0  0  0  0  0  0  0
   -3.3425    2.6363   -0.6278 H   0  0  0  0  0  0  0  0  0  0  0  0
   -2.0575    3.1406   -1.5025 H   0  0  0  0  0  0  0  0  0  0  0  0
  1  5  1  0
  5  8  1  0
  1  2  1  0
  1  3  1  0
  1  4  1  0
  5  6  1  0
  5  7  1  0
  8  9  1  0
  8 10  1  0
  8 11  1  0
 12 16  1  0
 16 17  1  0
 12 13  1  0
 12 14  1  0
 12 15  1  0
 17 18  1  0
 17 19  1  0
 17 20  1  0
M  CHG  1   8   1
M  END
>  <PDB_ID>  (609) 
pdb2wv0

>  <RESIDUE_NAME>  (609) 
LYS   MET

>  <FRAG_NAME>  (609) 
ETAM   MSM

>  <FRAG_ATOM_NUM>  (609) 
fragi: 11  fragj: 9

>  <atom.prop.CHAIN_ID>  (609) 
A A A A A A A A A A A Z Z Z Z Z Z Z Z Z

>  <atom.prop.IS_HEAVY_ATOM>  (609) 
1 0 0 0 1 0 0 1 0 0 0 1 0 0 0 1 1 0 0 0

>  <DIFUSE_FUNC_ATOM>  (609) 
n/a

>  <FINAL_SINGLE_POINT_ENERGY>  (609) 
0

>  <NONCOV_INTER_ENERGY_QM>  (609) 
0

>  <FF_Energy>  (609) 
49.27

>  <QM_Energy>  (609) 
26.84

>  <source>  (609) 
ETAM_MSM

>  <Index>  (609) 
3607

$$$$
ETAM-pdb1qs1-D-LYS-3247:MSM-pdb1qs1-D-MET-3170
     RDKit          3D

 20 18  0  0  0  0  0  0  0  0999 V2000
    1.2513    0.8652    0.0000 C   0  0  0  0  0  0  0  0  0  0  0  0
    1.2393    1.4423    0.8083 H   0  0  0  0  0  0  0  0  0  0  0  0
    1.2540    1.4195   -0.8245 H   0  0  0  0  0  0  0  0  0  0  0  0
    2.1544    0.2553    0.0176 H   0  0  0  0  0  0  0  0  0  0  0  0
    0.0000    0.0000    0.0000 C   0  0  0  0  0  0  0  0  0  0  0  0
    0.0092   -0.5865   -0.8167 H   0  0  0  0  0  0  0  0  0  0  0  0
    0.0096   -0.5866    0.8160 H   0  0  0  0  0  0  0  0  0  0  0  0
   -1.2513    0.8132   -0.0000 N   0  0  0  0  0  4  0  0  0  0  0  0
   -1.0410    1.7415   -0.3050 H   0  0  0  0  0  0  0  0  0  0  0  0
   -1.9149    0.3974   -0.6206 H   0  0  0  0  0  0  0  0  0  0  0  0
   -1.6269    0.8405    0.9253 H   0  0  0  0  0  0  0  0  0  0  0  0
   -1.4404   -4.6161    0.2599 C   0  0  0  0  0  0  0  0  0  0  0  0
   -1.8979   -5.1563    0.9983 H   0  0  0  0  0  0  0  0  0  0  0  0
   -0.6639   -5.1936   -0.0707 H   0  0  0  0  0  0  0  0  0  0  0  0
   -2.1453   -4.4663   -0.5580 H   0  0  0  0  0  0  0  0  0  0  0  0
   -0.8430   -3.0530    0.8941 S   0  0  0  0  0  0  0  0  0  0  0  0
    0.3148   -3.6456    2.1199 C   0  0  0  0  0  0  0  0  0  0  0  0
    1.0732   -2.9976    2.2092 H   0  0  0  0  0  0  0  0  0  0  0  0
   -0.1467   -3.7369    3.0037 H   0  0  0  0  0  0  0  0  0  0  0  0
    0.6748   -4.5381    1.8419 H   0  0  0  0  0  0  0  0  0  0  0  0
  1  5  1  0
  5  8  1  0
  1  2  1  0
  1  3  1  0
  1  4  1  0
  5  6  1  0
  5  7  1  0
  8  9  1  0
  8 10  1  0
  8 11  1  0
 12 16  1  0
 16 17  1  0
 12 13  1  0
 12 14  1  0
 12 15  1  0
 17 18  1  0
 17 19  1  0
 17 20  1  0
M  CHG  1   8   1
M  END
>  <PDB_ID>  (610) 
pdb1qs1

>  <RESIDUE_NAME>  (610) 
LYS   MET

>  <FRAG_NAME>  (610) 
ETAM   MSM

>  <FRAG_ATOM_NUM>  (610) 
fragi: 11  fragj: 9

>  <atom.prop.CHAIN_ID>  (610) 
A A A A A A A A A A A Z Z Z Z Z Z Z Z Z

>  <atom.prop.IS_HEAVY_ATOM>  (610) 
1 0 0 0 1 0 0 1 0 0 0 1 0 0 0 1 1 0 0 0

>  <DIFUSE_FUNC_ATOM>  (610) 
n/a

>  <FINAL_SINGLE_POINT_ENERGY>  (610) 
0

>  <NONCOV_INTER_ENERGY_QM>  (610) 
0

>  <FF_Energy>  (610) 
-3.07

>  <QM_Energy>  (610) 
-8.14

>  <source>  (610) 
ETAM_MSM

>  <Index>  (610) 
3622

$$$$
ETAM-pdb2x8l-A-LYS-62:MSM-pdb2x8l-A-MET-58
     RDKit          3D

 20 18  0  0  0  0  0  0  0  0999 V2000
    1.2221    0.8430    0.0000 C   0  0  0  0  0  0  0  0  0  0  0  0
    1.2980    1.3267    0.8641 H   0  0  0  0  0  0  0  0  0  0  0  0
    1.1886    1.4841   -0.7578 H   0  0  0  0  0  0  0  0  0  0  0  0
    2.1128    0.2261   -0.1192 H   0  0  0  0  0  0  0  0  0  0  0  0
    0.0000    0.0000    0.0000 C   0  0  0  0  0  0  0  0  0  0  0  0
   -0.0360   -0.5625   -0.8158 H   0  0  0  0  0  0  0  0  0  0  0  0
   -0.0363   -0.5624    0.8167 H   0  0  0  0  0  0  0  0  0  0  0  0
   -1.2221    0.9067   -0.0000 N   0  0  0  0  0  4  0  0  0  0  0  0
   -1.8576    0.5784   -0.6905 H   0  0  0  0  0  0  0  0  0  0  0  0
   -1.6397    0.8725    0.9017 H   0  0  0  0  0  0  0  0  0  0  0  0
   -0.9277    1.8328   -0.2120 H   0  0  0  0  0  0  0  0  0  0  0  0
    0.7949   -2.1590    3.5599 C   0  0  0  0  0  0  0  0  0  0  0  0
    1.3807   -2.4734    2.7961 H   0  0  0  0  0  0  0  0  0  0  0  0
   -0.1018   -2.6208    3.4652 H   0  0  0  0  0  0  0  0  0  0  0  0
    1.2493   -2.4978    4.4909 H   0  0  0  0  0  0  0  0  0  0  0  0
    0.6258   -0.3857    3.5751 S   0  0  0  0  0  0  0  0  0  0  0  0
   -0.7627   -0.0993    4.7332 C   0  0  0  0  0  0  0  0  0  0  0  0
   -1.6155   -0.1614    4.2254 H   0  0  0  0  0  0  0  0  0  0  0  0
   -0.7301   -0.7951    5.4438 H   0  0  0  0  0  0  0  0  0  0  0  0
   -0.6613    0.8072    5.1304 H   0  0  0  0  0  0  0  0  0  0  0  0
  1  5  1  0
  5  8  1  0
  1  2  1  0
  1  3  1  0
  1  4  1  0
  5  6  1  0
  5  7  1  0
  8  9  1  0
  8 10  1  0
  8 11  1  0
 12 16  1  0
 16 17  1  0
 12 13  1  0
 12 14  1  0
 12 15  1  0
 17 18  1  0
 17 19  1  0
 17 20  1  0
M  CHG  1   8   1
M  END
>  <PDB_ID>  (611) 
pdb2x8l

>  <RESIDUE_NAME>  (611) 
LYS   MET

>  <FRAG_NAME>  (611) 
ETAM   MSM

>  <FRAG_ATOM_NUM>  (611) 
fragi: 11  fragj: 9

>  <atom.prop.CHAIN_ID>  (611) 
A A A A A A A A A A A Z Z Z Z Z Z Z Z Z

>  <atom.prop.IS_HEAVY_ATOM>  (611) 
1 0 0 0 1 0 0 1 0 0 0 1 0 0 0 1 1 0 0 0

>  <DIFUSE_FUNC_ATOM>  (611) 
n/a

>  <FINAL_SINGLE_POINT_ENERGY>  (611) 
0

>  <NONCOV_INTER_ENERGY_QM>  (611) 
0

>  <FF_Energy>  (611) 
-3.81

>  <QM_Energy>  (611) 
-9.46

>  <source>  (611) 
ETAM_MSM

>  <Index>  (611) 
3628

$$$$
ETAM-pdb2x8u-B-LYS-298:MSM-pdb2x8u-B-MET-58
     RDKit          3D

 20 18  0  0  0  0  0  0  0  0999 V2000
    1.2455    0.8689   -0.0000 C   0  0  0  0  0  0  0  0  0  0  0  0
    1.9913    0.3593    0.4286 H   0  0  0  0  0  0  0  0  0  0  0  0
    1.0583    1.6961    0.5275 H   0  0  0  0  0  0  0  0  0  0  0  0
    1.5560    1.1590   -1.0038 H   0  0  0  0  0  0  0  0  0  0  0  0
    0.0000    0.0000    0.0000 C   0  0  0  0  0  0  0  0  0  0  0  0
    0.0190   -0.5916   -0.8158 H   0  0  0  0  0  0  0  0  0  0  0  0
    0.0189   -0.5916    0.8162 H   0  0  0  0  0  0  0  0  0  0  0  0
   -1.2455    0.7929   -0.0000 N   0  0  0  0  0  4  0  0  0  0  0  0
   -1.0504    1.7274    0.3012 H   0  0  0  0  0  0  0  0  0  0  0  0
   -1.6299    0.8176   -0.9247 H   0  0  0  0  0  0  0  0  0  0  0  0
   -1.9102    0.3771    0.6230 H   0  0  0  0  0  0  0  0  0  0  0  0
   -1.3754    2.7532    4.5727 C   0  0  0  0  0  0  0  0  0  0  0  0
   -1.1735    3.5937    4.0141 H   0  0  0  0  0  0  0  0  0  0  0  0
   -0.8493    2.8828    5.4479 H   0  0  0  0  0  0  0  0  0  0  0  0
   -2.4389    2.7516    4.8117 H   0  0  0  0  0  0  0  0  0  0  0  0
   -0.7913    1.2538    3.6976 S   0  0  0  0  0  0  0  0  0  0  0  0
   -1.1593    0.0172    4.9281 C   0  0  0  0  0  0  0  0  0  0  0  0
   -1.9289    0.3199    5.4944 H   0  0  0  0  0  0  0  0  0  0  0  0
   -1.4004   -0.8467    4.4808 H   0  0  0  0  0  0  0  0  0  0  0  0
   -0.3585   -0.1288    5.5129 H   0  0  0  0  0  0  0  0  0  0  0  0
  1  5  1  0
  5  8  1  0
  1  2  1  0
  1  3  1  0
  1  4  1  0
  5  6  1  0
  5  7  1  0
  8  9  1  0
  8 10  1  0
  8 11  1  0
 12 16  1  0
 16 17  1  0
 12 13  1  0
 12 14  1  0
 12 15  1  0
 17 18  1  0
 17 19  1  0
 17 20  1  0
M  CHG  1   8   1
M  END
>  <PDB_ID>  (612) 
pdb2x8u

>  <RESIDUE_NAME>  (612) 
LYS   MET

>  <FRAG_NAME>  (612) 
ETAM   MSM

>  <FRAG_ATOM_NUM>  (612) 
fragi: 11  fragj: 9

>  <atom.prop.CHAIN_ID>  (612) 
A A A A A A A A A A A Z Z Z Z Z Z Z Z Z

>  <atom.prop.IS_HEAVY_ATOM>  (612) 
1 0 0 0 1 0 0 1 0 0 0 1 0 0 0 1 1 0 0 0

>  <DIFUSE_FUNC_ATOM>  (612) 
n/a

>  <FINAL_SINGLE_POINT_ENERGY>  (612) 
0

>  <NONCOV_INTER_ENERGY_QM>  (612) 
0

>  <FF_Energy>  (612) 
-5.26

>  <QM_Energy>  (612) 
-11.95

>  <source>  (612) 
ETAM_MSM

>  <Index>  (612) 
3636

$$$$
ETAM-pdb1r7m-A-LYS-213:MSM-pdb1r7m-A-MET-221
     RDKit          3D

 20 18  0  0  0  0  0  0  0  0999 V2000
    1.2654    0.8510   -0.0000 C   0  0  0  0  0  0  0  0  0  0  0  0
    1.2202    1.4917    0.7642 H   0  0  0  0  0  0  0  0  0  0  0  0
    1.3116    1.3552   -0.8601 H   0  0  0  0  0  0  0  0  0  0  0  0
    2.1760    0.2605    0.1014 H   0  0  0  0  0  0  0  0  0  0  0  0
    0.0000    0.0000    0.0000 C   0  0  0  0  0  0  0  0  0  0  0  0
    0.0084   -0.5950   -0.8164 H   0  0  0  0  0  0  0  0  0  0  0  0
    0.0078   -0.5955    0.8162 H   0  0  0  0  0  0  0  0  0  0  0  0
   -1.2654    0.8024   -0.0000 N   0  0  0  0  0  4  0  0  0  0  0  0
   -1.1486    1.5963    0.5938 H   0  0  0  0  0  0  0  0  0  0  0  0
   -1.4626    1.1018   -0.9311 H   0  0  0  0  0  0  0  0  0  0  0  0
   -2.0127    0.2338    0.3384 H   0  0  0  0  0  0  0  0  0  0  0  0
   -5.9873    0.2721   -0.9028 C   0  0  0  0  0  0  0  0  0  0  0  0
   -6.2030    0.7702   -0.0335 H   0  0  0  0  0  0  0  0  0  0  0  0
   -6.2586   -0.7023   -0.7355 H   0  0  0  0  0  0  0  0  0  0  0  0
   -6.6121    0.6759   -1.6994 H   0  0  0  0  0  0  0  0  0  0  0  0
   -4.2183    0.3833   -1.2764 S   0  0  0  0  0  0  0  0  0  0  0  0
   -3.9677    2.1619   -1.2488 C   0  0  0  0  0  0  0  0  0  0  0  0
   -2.9901    2.3596   -1.1732 H   0  0  0  0  0  0  0  0  0  0  0  0
   -4.3241    2.5618   -2.0929 H   0  0  0  0  0  0  0  0  0  0  0  0
   -4.4486    2.5545   -0.4645 H   0  0  0  0  0  0  0  0  0  0  0  0
  1  5  1  0
  5  8  1  0
  1  2  1  0
  1  3  1  0
  1  4  1  0
  5  6  1  0
  5  7  1  0
  8  9  1  0
  8 10  1  0
  8 11  1  0
 12 16  1  0
 16 17  1  0
 12 13  1  0
 12 14  1  0
 12 15  1  0
 17 18  1  0
 17 19  1  0
 17 20  1  0
M  CHG  1   8   1
M  END
>  <PDB_ID>  (613) 
pdb1r7m

>  <RESIDUE_NAME>  (613) 
LYS   MET

>  <FRAG_NAME>  (613) 
ETAM   MSM

>  <FRAG_ATOM_NUM>  (613) 
fragi: 11  fragj: 9

>  <atom.prop.CHAIN_ID>  (613) 
A A A A A A A A A A A Z Z Z Z Z Z Z Z Z

>  <atom.prop.IS_HEAVY_ATOM>  (613) 
1 0 0 0 1 0 0 1 0 0 0 1 0 0 0 1 1 0 0 0

>  <DIFUSE_FUNC_ATOM>  (613) 
n/a

>  <FINAL_SINGLE_POINT_ENERGY>  (613) 
0

>  <NONCOV_INTER_ENERGY_QM>  (613) 
0

>  <FF_Energy>  (613) 
-2.88

>  <QM_Energy>  (613) 
-9.47

>  <source>  (613) 
ETAM_MSM

>  <Index>  (613) 
3650

$$$$
ETAM-pdb1r7m-B-LYS-513:MSM-pdb1r7m-B-MET-521
     RDKit          3D

 20 18  0  0  0  0  0  0  0  0999 V2000
    1.2374    0.8753    0.0000 C   0  0  0  0  0  0  0  0  0  0  0  0
    1.2555    1.4081    0.8433 H   0  0  0  0  0  0  0  0  0  0  0  0
    1.1977    1.4887   -0.7858 H   0  0  0  0  0  0  0  0  0  0  0  0
    2.1583    0.2954   -0.0606 H   0  0  0  0  0  0  0  0  0  0  0  0
    0.0000    0.0000    0.0000 C   0  0  0  0  0  0  0  0  0  0  0  0
    0.0097   -0.5796   -0.8158 H   0  0  0  0  0  0  0  0  0  0  0  0
    0.0091   -0.5799    0.8162 H   0  0  0  0  0  0  0  0  0  0  0  0
   -1.2374    0.8237   -0.0000 N   0  0  0  0  0  4  0  0  0  0  0  0
   -1.2605    1.3890    0.8246 H   0  0  0  0  0  0  0  0  0  0  0  0
   -1.2447    1.4120   -0.8085 H   0  0  0  0  0  0  0  0  0  0  0  0
   -2.0364    0.2230   -0.0167 H   0  0  0  0  0  0  0  0  0  0  0  0
   -6.3434   -0.1921   -1.0748 C   0  0  0  0  0  0  0  0  0  0  0  0
   -6.6185    0.0797   -0.1332 H   0  0  0  0  0  0  0  0  0  0  0  0
   -6.3741   -1.2087   -1.1065 H   0  0  0  0  0  0  0  0  0  0  0  0
   -7.0682    0.2071   -1.7843 H   0  0  0  0  0  0  0  0  0  0  0  0
   -4.6990    0.4090   -1.4571 S   0  0  0  0  0  0  0  0  0  0  0  0
   -3.7871   -0.3480   -0.1157 C   0  0  0  0  0  0  0  0  0  0  0  0
   -3.0354    0.2524    0.1612 H   0  0  0  0  0  0  0  0  0  0  0  0
   -4.3974   -0.4960    0.6644 H   0  0  0  0  0  0  0  0  0  0  0  0
   -3.4143   -1.2274   -0.4171 H   0  0  0  0  0  0  0  0  0  0  0  0
  1  5  1  0
  5  8  1  0
  1  2  1  0
  1  3  1  0
  1  4  1  0
  5  6  1  0
  5  7  1  0
  8  9  1  0
  8 10  1  0
  8 11  1  0
 12 16  1  0
 16 17  1  0
 12 13  1  0
 12 14  1  0
 12 15  1  0
 17 18  1  0
 17 19  1  0
 17 20  1  0
M  CHG  1   8   1
M  END
>  <PDB_ID>  (614) 
pdb1r7m

>  <RESIDUE_NAME>  (614) 
LYS   MET

>  <FRAG_NAME>  (614) 
ETAM   MSM

>  <FRAG_ATOM_NUM>  (614) 
fragi: 11  fragj: 9

>  <atom.prop.CHAIN_ID>  (614) 
A A A A A A A A A A A Z Z Z Z Z Z Z Z Z

>  <atom.prop.IS_HEAVY_ATOM>  (614) 
1 0 0 0 1 0 0 1 0 0 0 1 0 0 0 1 1 0 0 0

>  <DIFUSE_FUNC_ATOM>  (614) 
n/a

>  <FINAL_SINGLE_POINT_ENERGY>  (614) 
0

>  <NONCOV_INTER_ENERGY_QM>  (614) 
0

>  <FF_Energy>  (614) 
43.85

>  <QM_Energy>  (614) 
20.87

>  <source>  (614) 
ETAM_MSM

>  <Index>  (614) 
3651

$$$$
ETAM-pdb1r6k-A-LYS-45:MSM-pdb1r6k-A-MET-49
     RDKit          3D

 20 18  0  0  0  0  0  0  0  0999 V2000
    1.2520    0.8739    0.0000 C   0  0  0  0  0  0  0  0  0  0  0  0
    1.1982    1.5024   -0.7684 H   0  0  0  0  0  0  0  0  0  0  0  0
    2.0471    0.2852   -0.0866 H   0  0  0  0  0  0  0  0  0  0  0  0
    1.3378    1.4499    0.9213 H   0  0  0  0  0  0  0  0  0  0  0  0
    0.0000    0.0000    0.0000 C   0  0  0  0  0  0  0  0  0  0  0  0
    0.0141   -0.5845   -0.8164 H   0  0  0  0  0  0  0  0  0  0  0  0
    0.0133   -0.5846    0.8162 H   0  0  0  0  0  0  0  0  0  0  0  0
   -1.2520    0.8114    0.0000 N   0  0  0  0  0  4  0  0  0  0  0  0
   -1.0413    1.7426   -0.2934 H   0  0  0  0  0  0  0  0  0  0  0  0
   -1.9105    0.4013   -0.6288 H   0  0  0  0  0  0  0  0  0  0  0  0
   -1.6337    0.8280    0.9228 H   0  0  0  0  0  0  0  0  0  0  0  0
   -2.5078    3.5561    0.3113 C   0  0  0  0  0  0  0  0  0  0  0  0
   -2.7035    2.7832   -0.3125 H   0  0  0  0  0  0  0  0  0  0  0  0
   -1.5463    3.8352    0.1562 H   0  0  0  0  0  0  0  0  0  0  0  0
   -3.1713    4.3887    0.0776 H   0  0  0  0  0  0  0  0  0  0  0  0
   -2.7554    3.0676    2.0208 S   0  0  0  0  0  0  0  0  0  0  0  0
   -2.3577    4.5951    2.8706 C   0  0  0  0  0  0  0  0  0  0  0  0
   -1.7015    4.4103    3.6033 H   0  0  0  0  0  0  0  0  0  0  0  0
   -1.9573    5.2447    2.2228 H   0  0  0  0  0  0  0  0  0  0  0  0
   -3.1909    4.9879    3.2619 H   0  0  0  0  0  0  0  0  0  0  0  0
  1  5  1  0
  5  8  1  0
  1  2  1  0
  1  3  1  0
  1  4  1  0
  5  6  1  0
  5  7  1  0
  8  9  1  0
  8 10  1  0
  8 11  1  0
 12 16  1  0
 16 17  1  0
 12 13  1  0
 12 14  1  0
 12 15  1  0
 17 18  1  0
 17 19  1  0
 17 20  1  0
M  CHG  1   8   1
M  END
>  <PDB_ID>  (615) 
pdb1r6k

>  <RESIDUE_NAME>  (615) 
LYS   MET

>  <FRAG_NAME>  (615) 
ETAM   MSM

>  <FRAG_ATOM_NUM>  (615) 
fragi: 11  fragj: 9

>  <atom.prop.CHAIN_ID>  (615) 
A A A A A A A A A A A Z Z Z Z Z Z Z Z Z

>  <atom.prop.IS_HEAVY_ATOM>  (615) 
1 0 0 0 1 0 0 1 0 0 0 1 0 0 0 1 1 0 0 0

>  <DIFUSE_FUNC_ATOM>  (615) 
n/a

>  <FINAL_SINGLE_POINT_ENERGY>  (615) 
0

>  <NONCOV_INTER_ENERGY_QM>  (615) 
0

>  <FF_Energy>  (615) 
-1.0

>  <QM_Energy>  (615) 
-7.58

>  <source>  (615) 
ETAM_MSM

>  <Index>  (615) 
3659

$$$$
ETAM-pdb2xdq-B-LYS-301:MSM-pdb2xdq-B-MET-430
     RDKit          3D

 20 18  0  0  0  0  0  0  0  0999 V2000
    1.2115    0.9339   -0.0000 C   0  0  0  0  0  0  0  0  0  0  0  0
    1.4827    1.0890    0.9464 H   0  0  0  0  0  0  0  0  0  0  0  0
    0.9394    1.7946   -0.4227 H   0  0  0  0  0  0  0  0  0  0  0  0
    2.0506    0.5092   -0.5510 H   0  0  0  0  0  0  0  0  0  0  0  0
    0.0000    0.0000    0.0000 C   0  0  0  0  0  0  0  0  0  0  0  0
    0.0131   -0.5438   -0.8159 H   0  0  0  0  0  0  0  0  0  0  0  0
    0.0127   -0.5431    0.8161 H   0  0  0  0  0  0  0  0  0  0  0  0
   -1.2115    0.8742    0.0000 N   0  0  0  0  0  4  0  0  0  0  0  0
   -1.9947    0.3514   -0.3333 H   0  0  0  0  0  0  0  0  0  0  0  0
   -1.3890    1.1899    0.9307 H   0  0  0  0  0  0  0  0  0  0  0  0
   -1.0508    1.6583   -0.5966 H   0  0  0  0  0  0  0  0  0  0  0  0
   -3.0276    1.7541    2.9901 C   0  0  0  0  0  0  0  0  0  0  0  0
   -3.1199    1.3728    2.0325 H   0  0  0  0  0  0  0  0  0  0  0  0
   -2.8676    2.7661    2.8449 H   0  0  0  0  0  0  0  0  0  0  0  0
   -4.0038    1.6535    3.4646 H   0  0  0  0  0  0  0  0  0  0  0  0
   -1.6047    0.9880    3.8624 S   0  0  0  0  0  0  0  0  0  0  0  0
   -2.1937   -0.7218    3.9866 C   0  0  0  0  0  0  0  0  0  0  0  0
   -2.6799   -0.8358    4.8496 H   0  0  0  0  0  0  0  0  0  0  0  0
   -2.8073   -0.9100    3.2233 H   0  0  0  0  0  0  0  0  0  0  0  0
   -1.4109   -1.3385    3.9536 H   0  0  0  0  0  0  0  0  0  0  0  0
  1  5  1  0
  5  8  1  0
  1  2  1  0
  1  3  1  0
  1  4  1  0
  5  6  1  0
  5  7  1  0
  8  9  1  0
  8 10  1  0
  8 11  1  0
 12 16  1  0
 16 17  1  0
 12 13  1  0
 12 14  1  0
 12 15  1  0
 17 18  1  0
 17 19  1  0
 17 20  1  0
M  CHG  1   8   1
M  END
>  <PDB_ID>  (616) 
pdb2xdq

>  <RESIDUE_NAME>  (616) 
LYS   MET

>  <FRAG_NAME>  (616) 
ETAM   MSM

>  <FRAG_ATOM_NUM>  (616) 
fragi: 11  fragj: 9

>  <atom.prop.CHAIN_ID>  (616) 
A A A A A A A A A A A Z Z Z Z Z Z Z Z Z

>  <atom.prop.IS_HEAVY_ATOM>  (616) 
1 0 0 0 1 0 0 1 0 0 0 1 0 0 0 1 1 0 0 0

>  <DIFUSE_FUNC_ATOM>  (616) 
n/a

>  <FINAL_SINGLE_POINT_ENERGY>  (616) 
0

>  <NONCOV_INTER_ENERGY_QM>  (616) 
0

>  <FF_Energy>  (616) 
-2.4

>  <QM_Energy>  (616) 
-8.38

>  <source>  (616) 
ETAM_MSM

>  <Index>  (616) 
3662

$$$$
ETAM-pdb1r5v-E-LYS-13:MSM-pdb1r5v-A-MET-73
     RDKit          3D

 20 18  0  0  0  0  0  0  0  0999 V2000
    1.2760    0.8851   -0.0000 C   0  0  0  0  0  0  0  0  0  0  0  0
    1.1959    1.5441    0.7526 H   0  0  0  0  0  0  0  0  0  0  0  0
    1.3067    1.3845   -0.8695 H   0  0  0  0  0  0  0  0  0  0  0  0
    2.2128    0.3405    0.1183 H   0  0  0  0  0  0  0  0  0  0  0  0
    0.0000    0.0000    0.0000 C   0  0  0  0  0  0  0  0  0  0  0  0
    0.0232   -0.5856   -0.8163 H   0  0  0  0  0  0  0  0  0  0  0  0
    0.0235   -0.5856    0.8161 H   0  0  0  0  0  0  0  0  0  0  0  0
   -1.2760    0.7961    0.0000 N   0  0  0  0  0  4  0  0  0  0  0  0
   -1.7468    0.6534   -0.8669 H   0  0  0  0  0  0  0  0  0  0  0  0
   -1.8498    0.4873    0.7544 H   0  0  0  0  0  0  0  0  0  0  0  0
   -1.0546    1.7620    0.1127 H   0  0  0  0  0  0  0  0  0  0  0  0
   -1.3195    4.4788    0.8370 C   0  0  0  0  0  0  0  0  0  0  0  0
   -0.5392    4.1714    1.4435 H   0  0  0  0  0  0  0  0  0  0  0  0
   -2.1295    3.9238    1.1646 H   0  0  0  0  0  0  0  0  0  0  0  0
   -1.5174    5.5329    1.0316 H   0  0  0  0  0  0  0  0  0  0  0  0
   -0.9573    4.1023   -0.8892 S   0  0  0  0  0  0  0  0  0  0  0  0
   -2.6495    4.0100   -1.6678 C   0  0  0  0  0  0  0  0  0  0  0  0
   -2.8221    3.0631   -1.8967 H   0  0  0  0  0  0  0  0  0  0  0  0
   -3.3024    4.3443   -1.0041 H   0  0  0  0  0  0  0  0  0  0  0  0
   -2.6377    4.5790   -2.4771 H   0  0  0  0  0  0  0  0  0  0  0  0
  1  5  1  0
  5  8  1  0
  1  2  1  0
  1  3  1  0
  1  4  1  0
  5  6  1  0
  5  7  1  0
  8  9  1  0
  8 10  1  0
  8 11  1  0
 12 16  1  0
 16 17  1  0
 12 13  1  0
 12 14  1  0
 12 15  1  0
 17 18  1  0
 17 19  1  0
 17 20  1  0
M  CHG  1   8   1
M  END
>  <PDB_ID>  (617) 
pdb1r5v

>  <RESIDUE_NAME>  (617) 
LYS   MET

>  <FRAG_NAME>  (617) 
ETAM   MSM

>  <FRAG_ATOM_NUM>  (617) 
fragi: 11  fragj: 9

>  <atom.prop.CHAIN_ID>  (617) 
A A A A A A A A A A A Z Z Z Z Z Z Z Z Z

>  <atom.prop.IS_HEAVY_ATOM>  (617) 
1 0 0 0 1 0 0 1 0 0 0 1 0 0 0 1 1 0 0 0

>  <DIFUSE_FUNC_ATOM>  (617) 
n/a

>  <FINAL_SINGLE_POINT_ENERGY>  (617) 
0

>  <NONCOV_INTER_ENERGY_QM>  (617) 
0

>  <FF_Energy>  (617) 
-4.28

>  <QM_Energy>  (617) 
-12.32

>  <source>  (617) 
ETAM_MSM

>  <Index>  (617) 
3670

$$$$
ETAM-pdb1reg-Y-LYS-41:MSM-pdb1reg-Y-MET-56
     RDKit          3D

 20 18  0  0  0  0  0  0  0  0999 V2000
    1.2193    0.9175    0.0000 C   0  0  0  0  0  0  0  0  0  0  0  0
    2.0354    0.3542    0.0783 H   0  0  0  0  0  0  0  0  0  0  0  0
    1.1474    1.5347    0.7768 H   0  0  0  0  0  0  0  0  0  0  0  0
    1.2772    1.5032   -0.9174 H   0  0  0  0  0  0  0  0  0  0  0  0
    0.0000    0.0000    0.0000 C   0  0  0  0  0  0  0  0  0  0  0  0
    0.0442   -0.5794   -0.8161 H   0  0  0  0  0  0  0  0  0  0  0  0
    0.0438   -0.5793    0.8167 H   0  0  0  0  0  0  0  0  0  0  0  0
   -1.2193    0.7804   -0.0000 N   0  0  0  0  0  4  0  0  0  0  0  0
   -1.2300    1.4158   -0.7802 H   0  0  0  0  0  0  0  0  0  0  0  0
   -2.0226    0.1778   -0.0684 H   0  0  0  0  0  0  0  0  0  0  0  0
   -1.2940    1.3162    0.8492 H   0  0  0  0  0  0  0  0  0  0  0  0
   -4.7894    1.4533    2.8850 C   0  0  0  0  0  0  0  0  0  0  0  0
   -5.6530    2.0079    2.9365 H   0  0  0  0  0  0  0  0  0  0  0  0
   -4.1513    1.8836    3.5660 H   0  0  0  0  0  0  0  0  0  0  0  0
   -5.0161    0.4424    3.2241 H   0  0  0  0  0  0  0  0  0  0  0  0
   -4.0884    1.5074    1.2234 S   0  0  0  0  0  0  0  0  0  0  0  0
   -5.5805    1.0198    0.4137 C   0  0  0  0  0  0  0  0  0  0  0  0
   -6.0330    1.8199    0.0064 H   0  0  0  0  0  0  0  0  0  0  0  0
   -5.3809    0.3578   -0.3159 H   0  0  0  0  0  0  0  0  0  0  0  0
   -6.2102    0.5940    1.0716 H   0  0  0  0  0  0  0  0  0  0  0  0
  1  5  1  0
  5  8  1  0
  1  2  1  0
  1  3  1  0
  1  4  1  0
  5  6  1  0
  5  7  1  0
  8  9  1  0
  8 10  1  0
  8 11  1  0
 12 16  1  0
 16 17  1  0
 12 13  1  0
 12 14  1  0
 12 15  1  0
 17 18  1  0
 17 19  1  0
 17 20  1  0
M  CHG  1   8   1
M  END
>  <PDB_ID>  (618) 
pdb1reg

>  <RESIDUE_NAME>  (618) 
LYS   MET

>  <FRAG_NAME>  (618) 
ETAM   MSM

>  <FRAG_ATOM_NUM>  (618) 
fragi: 11  fragj: 9

>  <atom.prop.CHAIN_ID>  (618) 
A A A A A A A A A A A Z Z Z Z Z Z Z Z Z

>  <atom.prop.IS_HEAVY_ATOM>  (618) 
1 0 0 0 1 0 0 1 0 0 0 1 0 0 0 1 1 0 0 0

>  <DIFUSE_FUNC_ATOM>  (618) 
n/a

>  <FINAL_SINGLE_POINT_ENERGY>  (618) 
0

>  <NONCOV_INTER_ENERGY_QM>  (618) 
0

>  <FF_Energy>  (618) 
-5.16

>  <QM_Energy>  (618) 
-12.85

>  <source>  (618) 
ETAM_MSM

>  <Index>  (618) 
3681

$$$$
ETAM-pdb1rd5-A-LYS-104:MSM-pdb1rd5-A-MET-107
     RDKit          3D

 20 18  0  0  0  0  0  0  0  0999 V2000
    1.0996    1.1343    0.0000 C   0  0  0  0  0  0  0  0  0  0  0  0
    1.3598    1.2840    0.9513 H   0  0  0  0  0  0  0  0  0  0  0  0
    0.6679    1.9542   -0.3671 H   0  0  0  0  0  0  0  0  0  0  0  0
    1.9802    0.8811   -0.5903 H   0  0  0  0  0  0  0  0  0  0  0  0
    0.0000    0.0000    0.0000 C   0  0  0  0  0  0  0  0  0  0  0  0
    0.0135   -0.4079   -0.8167 H   0  0  0  0  0  0  0  0  0  0  0  0
    0.0135   -0.4087    0.8165 H   0  0  0  0  0  0  0  0  0  0  0  0
   -1.0996    1.0788   -0.0000 N   0  0  0  0  0  4  0  0  0  0  0  0
   -1.7088    0.8935    0.7600 H   0  0  0  0  0  0  0  0  0  0  0  0
   -0.6616    1.9621    0.1037 H   0  0  0  0  0  0  0  0  0  0  0  0
   -1.5830    1.0221   -0.8635 H   0  0  0  0  0  0  0  0  0  0  0  0
    0.4239    3.5521    4.2129 C   0  0  0  0  0  0  0  0  0  0  0  0
    0.9730    3.2064    4.9956 H   0  0  0  0  0  0  0  0  0  0  0  0
   -0.2837    4.1713    4.6003 H   0  0  0  0  0  0  0  0  0  0  0  0
    1.0688    4.1142    3.5375 H   0  0  0  0  0  0  0  0  0  0  0  0
   -0.4469    2.0763    3.3806 S   0  0  0  0  0  0  0  0  0  0  0  0
    0.2816    0.4739    4.4122 C   0  0  0  0  0  0  0  0  0  0  0  0
   -0.4390   -0.1667    4.3435 H   0  0  0  0  0  0  0  0  0  0  0  0
    1.0825    0.2516    3.9187 H   0  0  0  0  0  0  0  0  0  0  0  0
    0.4270    0.8394    5.2949 H   0  0  0  0  0  0  0  0  0  0  0  0
  1  5  1  0
  5  8  1  0
  1  2  1  0
  1  3  1  0
  1  4  1  0
  5  6  1  0
  5  7  1  0
  8  9  1  0
  8 10  1  0
  8 11  1  0
 12 16  1  0
 16 17  1  0
 12 13  1  0
 12 14  1  0
 12 15  1  0
 17 18  1  0
 17 19  1  0
 17 20  1  0
M  CHG  1   8   1
M  END
>  <PDB_ID>  (619) 
pdb1rd5

>  <RESIDUE_NAME>  (619) 
LYS   MET

>  <FRAG_NAME>  (619) 
ETAM   MSM

>  <FRAG_ATOM_NUM>  (619) 
fragi: 11  fragj: 9

>  <atom.prop.CHAIN_ID>  (619) 
A A A A A A A A A A A Z Z Z Z Z Z Z Z Z

>  <atom.prop.IS_HEAVY_ATOM>  (619) 
1 0 0 0 1 0 0 1 0 0 0 1 0 0 0 1 1 0 0 0

>  <DIFUSE_FUNC_ATOM>  (619) 
n/a

>  <FINAL_SINGLE_POINT_ENERGY>  (619) 
0

>  <NONCOV_INTER_ENERGY_QM>  (619) 
0

>  <FF_Energy>  (619) 
-5.42

>  <QM_Energy>  (619) 
-12.96

>  <source>  (619) 
ETAM_MSM

>  <Index>  (619) 
3685

$$$$
ETAM-pdb1rbo-B-LYS-201:MSM-pdb1rbo-B-MET-266
     RDKit          3D

 20 18  0  0  0  0  0  0  0  0999 V2000
    1.2397    0.8603   -0.0000 C   0  0  0  0  0  0  0  0  0  0  0  0
    2.0453    0.2707    0.0045 H   0  0  0  0  0  0  0  0  0  0  0  0
    1.2373    1.4355    0.8147 H   0  0  0  0  0  0  0  0  0  0  0  0
    1.2952    1.5067   -0.8759 H   0  0  0  0  0  0  0  0  0  0  0  0
    0.0000    0.0000    0.0000 C   0  0  0  0  0  0  0  0  0  0  0  0
    0.0125   -0.5928   -0.8152 H   0  0  0  0  0  0  0  0  0  0  0  0
    0.0125   -0.5917    0.8169 H   0  0  0  0  0  0  0  0  0  0  0  0
   -1.2397    0.8007   -0.0000 N   0  0  0  0  0  4  0  0  0  0  0  0
   -1.0761    1.6769    0.4555 H   0  0  0  0  0  0  0  0  0  0  0  0
   -1.5327    0.9692   -0.9431 H   0  0  0  0  0  0  0  0  0  0  0  0
   -1.9624    0.3060    0.4868 H   0  0  0  0  0  0  0  0  0  0  0  0
   -4.2100   -1.0624   -2.7978 C   0  0  0  0  0  0  0  0  0  0  0  0
   -3.9518   -0.9854   -3.7837 H   0  0  0  0  0  0  0  0  0  0  0  0
   -5.1610   -0.6964   -2.7247 H   0  0  0  0  0  0  0  0  0  0  0  0
   -4.1967   -2.1102   -2.4976 H   0  0  0  0  0  0  0  0  0  0  0  0
   -3.0761   -0.0428   -1.7815 S   0  0  0  0  0  0  0  0  0  0  0  0
   -4.1890    1.0471   -0.9889 C   0  0  0  0  0  0  0  0  0  0  0  0
   -4.1476    0.9352    0.0126 H   0  0  0  0  0  0  0  0  0  0  0  0
   -3.9667    2.0058   -1.2072 H   0  0  0  0  0  0  0  0  0  0  0  0
   -5.1361    0.8692   -1.2858 H   0  0  0  0  0  0  0  0  0  0  0  0
  1  5  1  0
  5  8  1  0
  1  2  1  0
  1  3  1  0
  1  4  1  0
  5  6  1  0
  5  7  1  0
  8  9  1  0
  8 10  1  0
  8 11  1  0
 12 16  1  0
 16 17  1  0
 12 13  1  0
 12 14  1  0
 12 15  1  0
 17 18  1  0
 17 19  1  0
 17 20  1  0
M  CHG  1   8   1
M  END
>  <PDB_ID>  (620) 
pdb1rbo

>  <RESIDUE_NAME>  (620) 
LYS   MET

>  <FRAG_NAME>  (620) 
ETAM   MSM

>  <FRAG_ATOM_NUM>  (620) 
fragi: 11  fragj: 9

>  <atom.prop.CHAIN_ID>  (620) 
A A A A A A A A A A A Z Z Z Z Z Z Z Z Z

>  <atom.prop.IS_HEAVY_ATOM>  (620) 
1 0 0 0 1 0 0 1 0 0 0 1 0 0 0 1 1 0 0 0

>  <DIFUSE_FUNC_ATOM>  (620) 
n/a

>  <FINAL_SINGLE_POINT_ENERGY>  (620) 
0

>  <NONCOV_INTER_ENERGY_QM>  (620) 
0

>  <FF_Energy>  (620) 
9.97

>  <QM_Energy>  (620) 
-6.4

>  <source>  (620) 
ETAM_MSM

>  <Index>  (620) 
3690

$$$$
ETAM-pdb2xmo-B-LYS-385:MSM-pdb2xmo-B-MET-372
     RDKit          3D

 20 18  0  0  0  0  0  0  0  0999 V2000
    1.2486    0.8690    0.0000 C   0  0  0  0  0  0  0  0  0  0  0  0
    1.2273    1.4546    0.8016 H   0  0  0  0  0  0  0  0  0  0  0  0
    1.2568    1.4115   -0.8308 H   0  0  0  0  0  0  0  0  0  0  0  0
    2.1507    0.2581    0.0327 H   0  0  0  0  0  0  0  0  0  0  0  0
    0.0000    0.0000    0.0000 C   0  0  0  0  0  0  0  0  0  0  0  0
    0.0107   -0.5851   -0.8166 H   0  0  0  0  0  0  0  0  0  0  0  0
    0.0106   -0.5853    0.8167 H   0  0  0  0  0  0  0  0  0  0  0  0
   -1.2486    0.8136   -0.0000 N   0  0  0  0  0  4  0  0  0  0  0  0
   -1.2965    1.3464    0.8443 H   0  0  0  0  0  0  0  0  0  0  0  0
   -1.2413    1.4307   -0.7862 H   0  0  0  0  0  0  0  0  0  0  0  0
   -2.0394    0.2055   -0.0580 H   0  0  0  0  0  0  0  0  0  0  0  0
   -0.4619    4.7896   -2.8771 C   0  0  0  0  0  0  0  0  0  0  0  0
    0.3872    4.4819   -3.3617 H   0  0  0  0  0  0  0  0  0  0  0  0
   -0.3697    5.8058   -2.7777 H   0  0  0  0  0  0  0  0  0  0  0  0
   -1.3210    4.5778   -3.5136 H   0  0  0  0  0  0  0  0  0  0  0  0
   -0.5901    4.0023   -1.2555 S   0  0  0  0  0  0  0  0  0  0  0  0
   -2.0443    4.8166   -0.6120 C   0  0  0  0  0  0  0  0  0  0  0  0
   -1.8918    5.0768    0.3433 H   0  0  0  0  0  0  0  0  0  0  0  0
   -2.2376    5.6386   -1.1514 H   0  0  0  0  0  0  0  0  0  0  0  0
   -2.8299    4.1965   -0.6629 H   0  0  0  0  0  0  0  0  0  0  0  0
  1  5  1  0
  5  8  1  0
  1  2  1  0
  1  3  1  0
  1  4  1  0
  5  6  1  0
  5  7  1  0
  8  9  1  0
  8 10  1  0
  8 11  1  0
 12 16  1  0
 16 17  1  0
 12 13  1  0
 12 14  1  0
 12 15  1  0
 17 18  1  0
 17 19  1  0
 17 20  1  0
M  CHG  1   8   1
M  END
>  <PDB_ID>  (621) 
pdb2xmo

>  <RESIDUE_NAME>  (621) 
LYS   MET

>  <FRAG_NAME>  (621) 
ETAM   MSM

>  <FRAG_ATOM_NUM>  (621) 
fragi: 11  fragj: 9

>  <atom.prop.CHAIN_ID>  (621) 
A A A A A A A A A A A Z Z Z Z Z Z Z Z Z

>  <atom.prop.IS_HEAVY_ATOM>  (621) 
1 0 0 0 1 0 0 1 0 0 0 1 0 0 0 1 1 0 0 0

>  <DIFUSE_FUNC_ATOM>  (621) 
n/a

>  <FINAL_SINGLE_POINT_ENERGY>  (621) 
0

>  <NONCOV_INTER_ENERGY_QM>  (621) 
0

>  <FF_Energy>  (621) 
-5.5

>  <QM_Energy>  (621) 
-13.77

>  <source>  (621) 
ETAM_MSM

>  <Index>  (621) 
3697

$$$$
ETAM-pdb1reo-A-LYS-326:MSM-pdb1reo-A-MET-89
     RDKit          3D

 20 18  0  0  0  0  0  0  0  0999 V2000
    1.2469    0.8787    0.0000 C   0  0  0  0  0  0  0  0  0  0  0  0
    1.2357    1.4428    0.8140 H   0  0  0  0  0  0  0  0  0  0  0  0
    1.2414    1.4344   -0.8190 H   0  0  0  0  0  0  0  0  0  0  0  0
    2.1477    0.2649    0.0068 H   0  0  0  0  0  0  0  0  0  0  0  0
    0.0000    0.0000    0.0000 C   0  0  0  0  0  0  0  0  0  0  0  0
    0.0139   -0.5815   -0.8164 H   0  0  0  0  0  0  0  0  0  0  0  0
    0.0136   -0.5815    0.8164 H   0  0  0  0  0  0  0  0  0  0  0  0
   -1.2469    0.8162   -0.0000 N   0  0  0  0  0  4  0  0  0  0  0  0
   -1.2244    1.4538   -0.7692 H   0  0  0  0  0  0  0  0  0  0  0  0
   -2.0376    0.2121   -0.0882 H   0  0  0  0  0  0  0  0  0  0  0  0
   -1.3086    1.3259    0.8570 H   0  0  0  0  0  0  0  0  0  0  0  0
   -4.7232    0.8698   -1.8868 C   0  0  0  0  0  0  0  0  0  0  0  0
   -5.0151    0.2583   -1.1070 H   0  0  0  0  0  0  0  0  0  0  0  0
   -5.5531    0.9161   -2.5012 H   0  0  0  0  0  0  0  0  0  0  0  0
   -4.5338    1.8667   -1.4889 H   0  0  0  0  0  0  0  0  0  0  0  0
   -3.3216    0.1336   -2.7750 S   0  0  0  0  0  0  0  0  0  0  0  0
   -2.6559    1.5170   -3.5485 C   0  0  0  0  0  0  0  0  0  0  0  0
   -1.7774    1.3012   -4.0063 H   0  0  0  0  0  0  0  0  0  0  0  0
   -3.2818    1.8851   -4.2554 H   0  0  0  0  0  0  0  0  0  0  0  0
   -2.4761    2.2633   -2.8860 H   0  0  0  0  0  0  0  0  0  0  0  0
  1  5  1  0
  5  8  1  0
  1  2  1  0
  1  3  1  0
  1  4  1  0
  5  6  1  0
  5  7  1  0
  8  9  1  0
  8 10  1  0
  8 11  1  0
 12 16  1  0
 16 17  1  0
 12 13  1  0
 12 14  1  0
 12 15  1  0
 17 18  1  0
 17 19  1  0
 17 20  1  0
M  CHG  1   8   1
M  END
>  <PDB_ID>  (622) 
pdb1reo

>  <RESIDUE_NAME>  (622) 
LYS   MET

>  <FRAG_NAME>  (622) 
ETAM   MSM

>  <FRAG_ATOM_NUM>  (622) 
fragi: 11  fragj: 9

>  <atom.prop.CHAIN_ID>  (622) 
A A A A A A A A A A A Z Z Z Z Z Z Z Z Z

>  <atom.prop.IS_HEAVY_ATOM>  (622) 
1 0 0 0 1 0 0 1 0 0 0 1 0 0 0 1 1 0 0 0

>  <DIFUSE_FUNC_ATOM>  (622) 
n/a

>  <FINAL_SINGLE_POINT_ENERGY>  (622) 
0

>  <NONCOV_INTER_ENERGY_QM>  (622) 
0

>  <FF_Energy>  (622) 
-4.03

>  <QM_Energy>  (622) 
-10.56

>  <source>  (622) 
ETAM_MSM

>  <Index>  (622) 
3699

$$$$
ETAM-pdb2xmo-A-LYS-385:MSM-pdb2xmo-A-MET-372
     RDKit          3D

 20 18  0  0  0  0  0  0  0  0999 V2000
    1.2563    0.8631    0.0000 C   0  0  0  0  0  0  0  0  0  0  0  0
    1.2734    1.3951    0.8375 H   0  0  0  0  0  0  0  0  0  0  0  0
    1.2296    1.4581   -0.7934 H   0  0  0  0  0  0  0  0  0  0  0  0
    2.1535    0.2460   -0.0471 H   0  0  0  0  0  0  0  0  0  0  0  0
    0.0000    0.0000    0.0000 C   0  0  0  0  0  0  0  0  0  0  0  0
    0.0120   -0.5903   -0.8163 H   0  0  0  0  0  0  0  0  0  0  0  0
    0.0116   -0.5902    0.8158 H   0  0  0  0  0  0  0  0  0  0  0  0
   -1.2563    0.8042   -0.0000 N   0  0  0  0  0  4  0  0  0  0  0  0
   -1.5363    0.9796    0.9426 H   0  0  0  0  0  0  0  0  0  0  0  0
   -1.0931    1.6715   -0.4689 H   0  0  0  0  0  0  0  0  0  0  0  0
   -1.9741    0.2955   -0.4742 H   0  0  0  0  0  0  0  0  0  0  0  0
    0.0279    5.3661   -1.3323 C   0  0  0  0  0  0  0  0  0  0  0  0
    0.7631    4.9539   -1.9109 H   0  0  0  0  0  0  0  0  0  0  0  0
    0.3333    6.3204   -1.1287 H   0  0  0  0  0  0  0  0  0  0  0  0
   -0.8935    5.4077   -1.9131 H   0  0  0  0  0  0  0  0  0  0  0  0
   -0.1854    4.4292    0.1889 S   0  0  0  0  0  0  0  0  0  0  0  0
    1.5036    4.1145    0.6263 C   0  0  0  0  0  0  0  0  0  0  0  0
    1.8393    4.8320    1.2436 H   0  0  0  0  0  0  0  0  0  0  0  0
    1.5805    3.2258    1.0881 H   0  0  0  0  0  0  0  0  0  0  0  0
    2.0767    4.1017   -0.1983 H   0  0  0  0  0  0  0  0  0  0  0  0
  1  5  1  0
  5  8  1  0
  1  2  1  0
  1  3  1  0
  1  4  1  0
  5  6  1  0
  5  7  1  0
  8  9  1  0
  8 10  1  0
  8 11  1  0
 12 16  1  0
 16 17  1  0
 12 13  1  0
 12 14  1  0
 12 15  1  0
 17 18  1  0
 17 19  1  0
 17 20  1  0
M  CHG  1   8   1
M  END
>  <PDB_ID>  (623) 
pdb2xmo

>  <RESIDUE_NAME>  (623) 
LYS   MET

>  <FRAG_NAME>  (623) 
ETAM   MSM

>  <FRAG_ATOM_NUM>  (623) 
fragi: 11  fragj: 9

>  <atom.prop.CHAIN_ID>  (623) 
A A A A A A A A A A A Z Z Z Z Z Z Z Z Z

>  <atom.prop.IS_HEAVY_ATOM>  (623) 
1 0 0 0 1 0 0 1 0 0 0 1 0 0 0 1 1 0 0 0

>  <DIFUSE_FUNC_ATOM>  (623) 
n/a

>  <FINAL_SINGLE_POINT_ENERGY>  (623) 
0

>  <NONCOV_INTER_ENERGY_QM>  (623) 
0

>  <FF_Energy>  (623) 
-2.26

>  <QM_Energy>  (623) 
-10.73

>  <source>  (623) 
ETAM_MSM

>  <Index>  (623) 
3713

$$$$
ETAM-pdb1rbo-H-LYS-201:MSM-pdb1rbo-H-MET-266
     RDKit          3D

 20 18  0  0  0  0  0  0  0  0999 V2000
    1.2404    0.8639   -0.0000 C   0  0  0  0  0  0  0  0  0  0  0  0
    2.0456    0.2751    0.0039 H   0  0  0  0  0  0  0  0  0  0  0  0
    1.2366    1.4374    0.8155 H   0  0  0  0  0  0  0  0  0  0  0  0
    1.2942    1.5114   -0.8752 H   0  0  0  0  0  0  0  0  0  0  0  0
    0.0000    0.0000    0.0000 C   0  0  0  0  0  0  0  0  0  0  0  0
    0.0147   -0.5921   -0.8164 H   0  0  0  0  0  0  0  0  0  0  0  0
    0.0149   -0.5915    0.8168 H   0  0  0  0  0  0  0  0  0  0  0  0
   -1.2404    0.7989    0.0000 N   0  0  0  0  0  4  0  0  0  0  0  0
   -1.7179    0.6812   -0.8726 H   0  0  0  0  0  0  0  0  0  0  0  0
   -1.8375    0.4968    0.7462 H   0  0  0  0  0  0  0  0  0  0  0  0
   -1.0194    1.7679    0.1267 H   0  0  0  0  0  0  0  0  0  0  0  0
   -4.3425   -0.6749   -2.5289 C   0  0  0  0  0  0  0  0  0  0  0  0
   -4.1306   -0.6022   -3.5262 H   0  0  0  0  0  0  0  0  0  0  0  0
   -5.2621   -0.2465   -2.4028 H   0  0  0  0  0  0  0  0  0  0  0  0
   -4.3852   -1.7251   -2.2403 H   0  0  0  0  0  0  0  0  0  0  0  0
   -3.0922    0.2524   -1.5630 S   0  0  0  0  0  0  0  0  0  0  0  0
   -4.0861    1.4046   -0.7045 C   0  0  0  0  0  0  0  0  0  0  0  0
   -4.5566    2.0222   -1.3493 H   0  0  0  0  0  0  0  0  0  0  0  0
   -4.7866    0.9322   -0.1539 H   0  0  0  0  0  0  0  0  0  0  0  0
   -3.5258    1.9677   -0.0832 H   0  0  0  0  0  0  0  0  0  0  0  0
  1  5  1  0
  5  8  1  0
  1  2  1  0
  1  3  1  0
  1  4  1  0
  5  6  1  0
  5  7  1  0
  8  9  1  0
  8 10  1  0
  8 11  1  0
 12 16  1  0
 16 17  1  0
 12 13  1  0
 12 14  1  0
 12 15  1  0
 17 18  1  0
 17 19  1  0
 17 20  1  0
M  CHG  1   8   1
M  END
>  <PDB_ID>  (624) 
pdb1rbo

>  <RESIDUE_NAME>  (624) 
LYS   MET

>  <FRAG_NAME>  (624) 
ETAM   MSM

>  <FRAG_ATOM_NUM>  (624) 
fragi: 11  fragj: 9

>  <atom.prop.CHAIN_ID>  (624) 
A A A A A A A A A A A Z Z Z Z Z Z Z Z Z

>  <atom.prop.IS_HEAVY_ATOM>  (624) 
1 0 0 0 1 0 0 1 0 0 0 1 0 0 0 1 1 0 0 0

>  <DIFUSE_FUNC_ATOM>  (624) 
n/a

>  <FINAL_SINGLE_POINT_ENERGY>  (624) 
0

>  <NONCOV_INTER_ENERGY_QM>  (624) 
0

>  <FF_Energy>  (624) 
48.15

>  <QM_Energy>  (624) 
10.56

>  <source>  (624) 
ETAM_MSM

>  <Index>  (624) 
3743

$$$$
ETAM-pdb1rp3-C-LYS-184:MSM-pdb1rp3-C-MET-231
     RDKit          3D

 20 18  0  0  0  0  0  0  0  0999 V2000
    1.2326    0.8769    0.0000 C   0  0  0  0  0  0  0  0  0  0  0  0
    1.2146    1.4545    0.8163 H   0  0  0  0  0  0  0  0  0  0  0  0
    1.2134    1.4542   -0.8165 H   0  0  0  0  0  0  0  0  0  0  0  0
    2.1570    0.2995    0.0011 H   0  0  0  0  0  0  0  0  0  0  0  0
    0.0000    0.0000    0.0000 C   0  0  0  0  0  0  0  0  0  0  0  0
    0.0087   -0.5781   -0.8161 H   0  0  0  0  0  0  0  0  0  0  0  0
    0.0081   -0.5779    0.8165 H   0  0  0  0  0  0  0  0  0  0  0  0
   -1.2326    0.8272   -0.0000 N   0  0  0  0  0  4  0  0  0  0  0  0
   -0.9878    1.7894   -0.1246 H   0  0  0  0  0  0  0  0  0  0  0  0
   -1.8296    0.5362   -0.7486 H   0  0  0  0  0  0  0  0  0  0  0  0
   -1.7102    0.7148    0.8713 H   0  0  0  0  0  0  0  0  0  0  0  0
    0.7478    4.8931    2.1416 C   0  0  0  0  0  0  0  0  0  0  0  0
   -0.0325    4.9095    1.4863 H   0  0  0  0  0  0  0  0  0  0  0  0
    1.1747    5.8181    2.1073 H   0  0  0  0  0  0  0  0  0  0  0  0
    0.3607    4.7196    3.1456 H   0  0  0  0  0  0  0  0  0  0  0  0
    1.9377    3.6253    1.6838 S   0  0  0  0  0  0  0  0  0  0  0  0
    3.3982    4.2073    2.6036 C   0  0  0  0  0  0  0  0  0  0  0  0
    4.1848    3.6566    2.3381 H   0  0  0  0  0  0  0  0  0  0  0  0
    3.5578    5.1643    2.3790 H   0  0  0  0  0  0  0  0  0  0  0  0
    3.2235    4.1088    3.5791 H   0  0  0  0  0  0  0  0  0  0  0  0
  1  5  1  0
  5  8  1  0
  1  2  1  0
  1  3  1  0
  1  4  1  0
  5  6  1  0
  5  7  1  0
  8  9  1  0
  8 10  1  0
  8 11  1  0
 12 16  1  0
 16 17  1  0
 12 13  1  0
 12 14  1  0
 12 15  1  0
 17 18  1  0
 17 19  1  0
 17 20  1  0
M  CHG  1   8   1
M  END
>  <PDB_ID>  (625) 
pdb1rp3

>  <RESIDUE_NAME>  (625) 
LYS   MET

>  <FRAG_NAME>  (625) 
ETAM   MSM

>  <FRAG_ATOM_NUM>  (625) 
fragi: 11  fragj: 9

>  <atom.prop.CHAIN_ID>  (625) 
A A A A A A A A A A A Z Z Z Z Z Z Z Z Z

>  <atom.prop.IS_HEAVY_ATOM>  (625) 
1 0 0 0 1 0 0 1 0 0 0 1 0 0 0 1 1 0 0 0

>  <DIFUSE_FUNC_ATOM>  (625) 
n/a

>  <FINAL_SINGLE_POINT_ENERGY>  (625) 
0

>  <NONCOV_INTER_ENERGY_QM>  (625) 
0

>  <FF_Energy>  (625) 
0.2

>  <QM_Energy>  (625) 
-4.87

>  <source>  (625) 
ETAM_MSM

>  <Index>  (625) 
3749

$$$$
ETAM-pdb1rnf-B-LYS-40:MSM-pdb1rnf-B-MET-34
     RDKit          3D

 20 18  0  0  0  0  0  0  0  0999 V2000
    1.2432    0.8539   -0.0000 C   0  0  0  0  0  0  0  0  0  0  0  0
    0.9784    1.7969   -0.1859 H   0  0  0  0  0  0  0  0  0  0  0  0
    1.8531    0.5240   -0.7162 H   0  0  0  0  0  0  0  0  0  0  0  0
    1.7511    0.8028    0.9631 H   0  0  0  0  0  0  0  0  0  0  0  0
    0.0000    0.0000    0.0000 C   0  0  0  0  0  0  0  0  0  0  0  0
   -0.0064   -0.5801   -0.8156 H   0  0  0  0  0  0  0  0  0  0  0  0
   -0.0071   -0.5803    0.8165 H   0  0  0  0  0  0  0  0  0  0  0  0
   -1.2432    0.8430    0.0000 N   0  0  0  0  0  4  0  0  0  0  0  0
   -1.7414    0.6876    0.8502 H   0  0  0  0  0  0  0  0  0  0  0  0
   -0.9847    1.8032   -0.0717 H   0  0  0  0  0  0  0  0  0  0  0  0
   -1.8106    0.5847   -0.7783 H   0  0  0  0  0  0  0  0  0  0  0  0
   -0.3015    4.7028    1.3656 C   0  0  0  0  0  0  0  0  0  0  0  0
   -0.2722    3.8022    1.8926 H   0  0  0  0  0  0  0  0  0  0  0  0
   -1.0028    5.2623    1.9013 H   0  0  0  0  0  0  0  0  0  0  0  0
    0.6699    5.1875    1.4635 H   0  0  0  0  0  0  0  0  0  0  0  0
   -0.8830    4.4217   -0.3183 S   0  0  0  0  0  0  0  0  0  0  0  0
   -0.7974    6.0998   -0.9204 C   0  0  0  0  0  0  0  0  0  0  0  0
   -0.0666    6.5940   -0.4438 H   0  0  0  0  0  0  0  0  0  0  0  0
   -0.6062    6.0971   -1.9040 H   0  0  0  0  0  0  0  0  0  0  0  0
   -1.6702    6.5643   -0.7553 H   0  0  0  0  0  0  0  0  0  0  0  0
  1  5  1  0
  5  8  1  0
  1  2  1  0
  1  3  1  0
  1  4  1  0
  5  6  1  0
  5  7  1  0
  8  9  1  0
  8 10  1  0
  8 11  1  0
 12 16  1  0
 16 17  1  0
 12 13  1  0
 12 14  1  0
 12 15  1  0
 17 18  1  0
 17 19  1  0
 17 20  1  0
M  CHG  1   8   1
M  END
>  <PDB_ID>  (626) 
pdb1rnf

>  <RESIDUE_NAME>  (626) 
LYS   MET

>  <FRAG_NAME>  (626) 
ETAM   MSM

>  <FRAG_ATOM_NUM>  (626) 
fragi: 11  fragj: 9

>  <atom.prop.CHAIN_ID>  (626) 
A A A A A A A A A A A Z Z Z Z Z Z Z Z Z

>  <atom.prop.IS_HEAVY_ATOM>  (626) 
1 0 0 0 1 0 0 1 0 0 0 1 0 0 0 1 1 0 0 0

>  <DIFUSE_FUNC_ATOM>  (626) 
n/a

>  <FINAL_SINGLE_POINT_ENERGY>  (626) 
0

>  <NONCOV_INTER_ENERGY_QM>  (626) 
0

>  <FF_Energy>  (626) 
-5.5

>  <QM_Energy>  (626) 
-11.52

>  <source>  (626) 
ETAM_MSM

>  <Index>  (626) 
3752

$$$$
ETAM-pdb1rbo-L-LYS-201:MSM-pdb1rbo-L-MET-266
     RDKit          3D

 20 18  0  0  0  0  0  0  0  0999 V2000
    1.2407    0.8613    0.0000 C   0  0  0  0  0  0  0  0  0  0  0  0
    2.0455    0.2726    0.0051 H   0  0  0  0  0  0  0  0  0  0  0  0
    1.2367    1.4362    0.8162 H   0  0  0  0  0  0  0  0  0  0  0  0
    1.2955    1.5095   -0.8746 H   0  0  0  0  0  0  0  0  0  0  0  0
    0.0000    0.0000    0.0000 C   0  0  0  0  0  0  0  0  0  0  0  0
    0.0135   -0.5918   -0.8165 H   0  0  0  0  0  0  0  0  0  0  0  0
    0.0135   -0.5921    0.8155 H   0  0  0  0  0  0  0  0  0  0  0  0
   -1.2407    0.8001   -0.0000 N   0  0  0  0  0  4  0  0  0  0  0  0
   -1.9584    0.3104    0.4971 H   0  0  0  0  0  0  0  0  0  0  0  0
   -1.0734    1.6822    0.4449 H   0  0  0  0  0  0  0  0  0  0  0  0
   -1.5409    0.9578   -0.9424 H   0  0  0  0  0  0  0  0  0  0  0  0
   -4.2078   -1.0599   -2.8021 C   0  0  0  0  0  0  0  0  0  0  0  0
   -3.9497   -0.9810   -3.7874 H   0  0  0  0  0  0  0  0  0  0  0  0
   -5.1589   -0.6946   -2.7289 H   0  0  0  0  0  0  0  0  0  0  0  0
   -4.1939   -2.1082   -2.5036 H   0  0  0  0  0  0  0  0  0  0  0  0
   -3.0752   -0.0408   -1.7840 S   0  0  0  0  0  0  0  0  0  0  0  0
   -4.1887    1.0474   -0.9914 C   0  0  0  0  0  0  0  0  0  0  0  0
   -3.7034    1.6393   -0.3345 H   0  0  0  0  0  0  0  0  0  0  0  0
   -4.6513    1.6392   -1.6645 H   0  0  0  0  0  0  0  0  0  0  0  0
   -4.8951    0.5331   -0.4878 H   0  0  0  0  0  0  0  0  0  0  0  0
  1  5  1  0
  5  8  1  0
  1  2  1  0
  1  3  1  0
  1  4  1  0
  5  6  1  0
  5  7  1  0
  8  9  1  0
  8 10  1  0
  8 11  1  0
 12 16  1  0
 16 17  1  0
 12 13  1  0
 12 14  1  0
 12 15  1  0
 17 18  1  0
 17 19  1  0
 17 20  1  0
M  CHG  1   8   1
M  END
>  <PDB_ID>  (627) 
pdb1rbo

>  <RESIDUE_NAME>  (627) 
LYS   MET

>  <FRAG_NAME>  (627) 
ETAM   MSM

>  <FRAG_ATOM_NUM>  (627) 
fragi: 11  fragj: 9

>  <atom.prop.CHAIN_ID>  (627) 
A A A A A A A A A A A Z Z Z Z Z Z Z Z Z

>  <atom.prop.IS_HEAVY_ATOM>  (627) 
1 0 0 0 1 0 0 1 0 0 0 1 0 0 0 1 1 0 0 0

>  <DIFUSE_FUNC_ATOM>  (627) 
n/a

>  <FINAL_SINGLE_POINT_ENERGY>  (627) 
0

>  <NONCOV_INTER_ENERGY_QM>  (627) 
0

>  <FF_Energy>  (627) 
10.55

>  <QM_Energy>  (627) 
-6.46

>  <source>  (627) 
ETAM_MSM

>  <Index>  (627) 
3767

$$$$
ETAM-pdb1rt8-A-LYS-524:MSM-pdb1rt8-A-MET-521
     RDKit          3D

 20 18  0  0  0  0  0  0  0  0999 V2000
    1.2726    0.8533    0.0000 C   0  0  0  0  0  0  0  0  0  0  0  0
    1.3457    1.3061    0.8742 H   0  0  0  0  0  0  0  0  0  0  0  0
    1.2149    1.5001   -0.7423 H   0  0  0  0  0  0  0  0  0  0  0  0
    2.1460    0.2179   -0.1465 H   0  0  0  0  0  0  0  0  0  0  0  0
    0.0000    0.0000    0.0000 C   0  0  0  0  0  0  0  0  0  0  0  0
    0.0146   -0.5985   -0.8160 H   0  0  0  0  0  0  0  0  0  0  0  0
    0.0139   -0.5992    0.8162 H   0  0  0  0  0  0  0  0  0  0  0  0
   -1.2726    0.7885   -0.0000 N   0  0  0  0  0  4  0  0  0  0  0  0
   -1.8602    0.4621   -0.7381 H   0  0  0  0  0  0  0  0  0  0  0  0
   -1.7327    0.6668    0.8777 H   0  0  0  0  0  0  0  0  0  0  0  0
   -1.0595    1.7538   -0.1400 H   0  0  0  0  0  0  0  0  0  0  0  0
    0.4717    0.2944    5.1911 C   0  0  0  0  0  0  0  0  0  0  0  0
    0.0791    0.4333    6.1333 H   0  0  0  0  0  0  0  0  0  0  0  0
    1.2623    0.9529    5.1346 H   0  0  0  0  0  0  0  0  0  0  0  0
    0.8621   -0.7212    5.1263 H   0  0  0  0  0  0  0  0  0  0  0  0
   -0.7581    0.6696    3.9293 S   0  0  0  0  0  0  0  0  0  0  0  0
   -2.1543    1.2050    4.8987 C   0  0  0  0  0  0  0  0  0  0  0  0
   -2.5213    2.0589    4.5239 H   0  0  0  0  0  0  0  0  0  0  0  0
   -2.8710    0.5035    4.8798 H   0  0  0  0  0  0  0  0  0  0  0  0
   -1.8704    1.3590    5.8483 H   0  0  0  0  0  0  0  0  0  0  0  0
  1  5  1  0
  5  8  1  0
  1  2  1  0
  1  3  1  0
  1  4  1  0
  5  6  1  0
  5  7  1  0
  8  9  1  0
  8 10  1  0
  8 11  1  0
 12 16  1  0
 16 17  1  0
 12 13  1  0
 12 14  1  0
 12 15  1  0
 17 18  1  0
 17 19  1  0
 17 20  1  0
M  CHG  1   8   1
M  END
>  <PDB_ID>  (628) 
pdb1rt8

>  <RESIDUE_NAME>  (628) 
LYS   MET

>  <FRAG_NAME>  (628) 
ETAM   MSM

>  <FRAG_ATOM_NUM>  (628) 
fragi: 11  fragj: 9

>  <atom.prop.CHAIN_ID>  (628) 
A A A A A A A A A A A Z Z Z Z Z Z Z Z Z

>  <atom.prop.IS_HEAVY_ATOM>  (628) 
1 0 0 0 1 0 0 1 0 0 0 1 0 0 0 1 1 0 0 0

>  <DIFUSE_FUNC_ATOM>  (628) 
n/a

>  <FINAL_SINGLE_POINT_ENERGY>  (628) 
0

>  <NONCOV_INTER_ENERGY_QM>  (628) 
0

>  <FF_Energy>  (628) 
-5.02

>  <QM_Energy>  (628) 
-10.76

>  <source>  (628) 
ETAM_MSM

>  <Index>  (628) 
3772

$$$$
ETAM-pdb1ry6-A-LYS-301:MSM-pdb1ry6-A-MET-1
     RDKit          3D

 20 18  0  0  0  0  0  0  0  0999 V2000
    1.2275    0.9365   -0.0000 C   0  0  0  0  0  0  0  0  0  0  0  0
    1.2786    1.3572   -0.9082 H   0  0  0  0  0  0  0  0  0  0  0  0
    2.0371    0.3635    0.1438 H   0  0  0  0  0  0  0  0  0  0  0  0
    1.1674    1.7062    0.7695 H   0  0  0  0  0  0  0  0  0  0  0  0
    0.0000    0.0000    0.0000 C   0  0  0  0  0  0  0  0  0  0  0  0
    0.0412   -0.5647   -0.8163 H   0  0  0  0  0  0  0  0  0  0  0  0
    0.0405   -0.5644    0.8160 H   0  0  0  0  0  0  0  0  0  0  0  0
   -1.2275    0.8065    0.0000 N   0  0  0  0  0  4  0  0  0  0  0  0
   -2.0282    0.2086   -0.0823 H   0  0  0  0  0  0  0  0  0  0  0  0
   -1.2942    1.3265    0.8552 H   0  0  0  0  0  0  0  0  0  0  0  0
   -1.2157    1.4465   -0.7725 H   0  0  0  0  0  0  0  0  0  0  0  0
    3.3331   -3.8946    1.3619 C   0  0  0  0  0  0  0  0  0  0  0  0
    2.7838   -4.2431    0.6047 H   0  0  0  0  0  0  0  0  0  0  0  0
    3.6191   -4.6527    1.9463 H   0  0  0  0  0  0  0  0  0  0  0  0
    4.2050   -3.3632    0.9805 H   0  0  0  0  0  0  0  0  0  0  0  0
    2.3565   -2.6914    2.3378 S   0  0  0  0  0  0  0  0  0  0  0  0
    2.7703   -1.1772    1.4685 C   0  0  0  0  0  0  0  0  0  0  0  0
    2.7801   -1.3493    0.4827 H   0  0  0  0  0  0  0  0  0  0  0  0
    2.0871   -0.4753    1.6757 H   0  0  0  0  0  0  0  0  0  0  0  0
    3.6730   -0.8603    1.7604 H   0  0  0  0  0  0  0  0  0  0  0  0
  1  5  1  0
  5  8  1  0
  1  2  1  0
  1  3  1  0
  1  4  1  0
  5  6  1  0
  5  7  1  0
  8  9  1  0
  8 10  1  0
  8 11  1  0
 12 16  1  0
 16 17  1  0
 12 13  1  0
 12 14  1  0
 12 15  1  0
 17 18  1  0
 17 19  1  0
 17 20  1  0
M  CHG  1   8   1
M  END
>  <PDB_ID>  (629) 
pdb1ry6

>  <RESIDUE_NAME>  (629) 
LYS   MET

>  <FRAG_NAME>  (629) 
ETAM   MSM

>  <FRAG_ATOM_NUM>  (629) 
fragi: 11  fragj: 9

>  <atom.prop.CHAIN_ID>  (629) 
A A A A A A A A A A A Z Z Z Z Z Z Z Z Z

>  <atom.prop.IS_HEAVY_ATOM>  (629) 
1 0 0 0 1 0 0 1 0 0 0 1 0 0 0 1 1 0 0 0

>  <DIFUSE_FUNC_ATOM>  (629) 
n/a

>  <FINAL_SINGLE_POINT_ENERGY>  (629) 
0

>  <NONCOV_INTER_ENERGY_QM>  (629) 
0

>  <FF_Energy>  (629) 
16.99

>  <QM_Energy>  (629) 
3.72

>  <source>  (629) 
ETAM_MSM

>  <Index>  (629) 
3784

$$$$
ETAM-pdb2y4k-A-LYS-76:MSM-pdb2y4k-A-MET-80
     RDKit          3D

 20 18  0  0  0  0  0  0  0  0999 V2000
    1.2241    0.8959    0.0000 C   0  0  0  0  0  0  0  0  0  0  0  0
    1.2355    1.4259    0.8556 H   0  0  0  0  0  0  0  0  0  0  0  0
    1.1527    1.5385   -0.7719 H   0  0  0  0  0  0  0  0  0  0  0  0
    2.1734    0.3668   -0.0841 H   0  0  0  0  0  0  0  0  0  0  0  0
    0.0000    0.0000    0.0000 C   0  0  0  0  0  0  0  0  0  0  0  0
    0.0010   -0.5584   -0.8166 H   0  0  0  0  0  0  0  0  0  0  0  0
    0.0012   -0.5590    0.8164 H   0  0  0  0  0  0  0  0  0  0  0  0
   -1.2241    0.8660   -0.0000 N   0  0  0  0  0  4  0  0  0  0  0  0
   -1.9633    0.3854    0.4670 H   0  0  0  0  0  0  0  0  0  0  0  0
   -1.0201    1.7187    0.4762 H   0  0  0  0  0  0  0  0  0  0  0  0
   -1.4875    1.0584   -0.9430 H   0  0  0  0  0  0  0  0  0  0  0  0
    1.1470    0.6123   -4.4089 C   0  0  0  0  0  0  0  0  0  0  0  0
    0.7510   -0.1992   -4.8852 H   0  0  0  0  0  0  0  0  0  0  0  0
    1.9080    0.2594   -3.8282 H   0  0  0  0  0  0  0  0  0  0  0  0
    1.5725    1.2750   -5.1624 H   0  0  0  0  0  0  0  0  0  0  0  0
   -0.0995    1.4438   -3.4052 S   0  0  0  0  0  0  0  0  0  0  0  0
   -1.5883    1.1696   -4.3415 C   0  0  0  0  0  0  0  0  0  0  0  0
   -1.6395    0.2100   -4.6277 H   0  0  0  0  0  0  0  0  0  0  0  0
   -2.3898    1.3863   -3.7794 H   0  0  0  0  0  0  0  0  0  0  0  0
   -1.5915    1.7552   -5.1561 H   0  0  0  0  0  0  0  0  0  0  0  0
  1  5  1  0
  5  8  1  0
  1  2  1  0
  1  3  1  0
  1  4  1  0
  5  6  1  0
  5  7  1  0
  8  9  1  0
  8 10  1  0
  8 11  1  0
 12 16  1  0
 16 17  1  0
 12 13  1  0
 12 14  1  0
 12 15  1  0
 17 18  1  0
 17 19  1  0
 17 20  1  0
M  CHG  1   8   1
M  END
>  <PDB_ID>  (630) 
pdb2y4k

>  <RESIDUE_NAME>  (630) 
LYS   MET

>  <FRAG_NAME>  (630) 
ETAM   MSM

>  <FRAG_ATOM_NUM>  (630) 
fragi: 11  fragj: 9

>  <atom.prop.CHAIN_ID>  (630) 
A A A A A A A A A A A Z Z Z Z Z Z Z Z Z

>  <atom.prop.IS_HEAVY_ATOM>  (630) 
1 0 0 0 1 0 0 1 0 0 0 1 0 0 0 1 1 0 0 0

>  <DIFUSE_FUNC_ATOM>  (630) 
n/a

>  <FINAL_SINGLE_POINT_ENERGY>  (630) 
0

>  <NONCOV_INTER_ENERGY_QM>  (630) 
0

>  <FF_Energy>  (630) 
-5.33

>  <QM_Energy>  (630) 
-12.81

>  <source>  (630) 
ETAM_MSM

>  <Index>  (630) 
3791

$$$$
ETAM-pdb1s2o-A-MET-1:MSM-pdb1s2o-A-MET-176
     RDKit          3D

 20 18  0  0  0  0  0  0  0  0999 V2000
    1.2339    0.8924   -0.0000 C   0  0  0  0  0  0  0  0  0  0  0  0
    1.2226    1.4650    0.8214 H   0  0  0  0  0  0  0  0  0  0  0  0
    2.0532    0.3160    0.0115 H   0  0  0  0  0  0  0  0  0  0  0  0
    1.2678    1.5363   -0.8788 H   0  0  0  0  0  0  0  0  0  0  0  0
    0.0000    0.0000    0.0000 C   0  0  0  0  0  0  0  0  0  0  0  0
   -0.0207   -0.5643   -0.8261 H   0  0  0  0  0  0  0  0  0  0  0  0
    0.0125   -0.6580    0.8689 H   0  0  0  0  0  0  0  0  0  0  0  0
   -1.2339    0.8368    0.0000 N   0  0  0  0  0  4  0  0  0  0  0  0
   -1.9079    0.4252   -0.6081 H   0  0  0  0  0  0  0  0  0  0  0  0
   -1.5978    0.8811    0.9265 H   0  0  0  0  0  0  0  0  0  0  0  0
   -1.0065    1.7535   -0.3178 H   0  0  0  0  0  0  0  0  0  0  0  0
   -5.1894    3.2524    1.8734 C   0  0  0  0  0  0  0  0  0  0  0  0
   -4.6688    3.9258    1.2950 H   0  0  0  0  0  0  0  0  0  0  0  0
   -5.1228    3.6185    2.8327 H   0  0  0  0  0  0  0  0  0  0  0  0
   -6.2357    3.2816    1.5693 H   0  0  0  0  0  0  0  0  0  0  0  0
   -4.4561    1.6104    1.7627 S   0  0  0  0  0  0  0  0  0  0  0  0
   -5.1191    0.8403    3.2282 C   0  0  0  0  0  0  0  0  0  0  0  0
   -5.7379    0.0949    2.9696 H   0  0  0  0  0  0  0  0  0  0  0  0
   -4.3722    0.4695    3.7844 H   0  0  0  0  0  0  0  0  0  0  0  0
   -5.6258    1.5161    3.7679 H   0  0  0  0  0  0  0  0  0  0  0  0
  1  5  1  0
  5  8  1  0
  1  2  1  0
  1  3  1  0
  1  4  1  0
  5  6  1  0
  5  7  1  0
  8  9  1  0
  8 10  1  0
  8 11  1  0
 12 16  1  0
 16 17  1  0
 12 13  1  0
 12 14  1  0
 12 15  1  0
 17 18  1  0
 17 19  1  0
 17 20  1  0
M  CHG  1   8   1
M  END
>  <PDB_ID>  (631) 
pdb1s2o

>  <RESIDUE_NAME>  (631) 
MET   MET

>  <FRAG_NAME>  (631) 
ETAM   MSM

>  <FRAG_ATOM_NUM>  (631) 
fragi: 11  fragj: 9

>  <atom.prop.CHAIN_ID>  (631) 
A A A A A A A A A A A Z Z Z Z Z Z Z Z Z

>  <atom.prop.IS_HEAVY_ATOM>  (631) 
1 0 0 0 1 0 0 1 0 0 0 1 0 0 0 1 1 0 0 0

>  <DIFUSE_FUNC_ATOM>  (631) 
n/a

>  <FINAL_SINGLE_POINT_ENERGY>  (631) 
0

>  <NONCOV_INTER_ENERGY_QM>  (631) 
0

>  <FF_Energy>  (631) 
-4.74

>  <QM_Energy>  (631) 
-11.38

>  <source>  (631) 
ETAM_MSM

>  <Index>  (631) 
3798

$$$$
ETAM-pdb1s3o-A-LEU-10:MSM-pdb1s3o-B-MET-48
     RDKit          3D

 20 18  0  0  0  0  0  0  0  0999 V2000
    1.1808    0.9593   -0.0000 C   0  0  0  0  0  0  0  0  0  0  0  0
    0.9899    1.6778   -0.6760 H   0  0  0  0  0  0  0  0  0  0  0  0
    1.2358    1.3760    0.9108 H   0  0  0  0  0  0  0  0  0  0  0  0
    2.1632    0.5473   -0.2306 H   0  0  0  0  0  0  0  0  0  0  0  0
    0.0000    0.0000    0.0000 C   0  0  0  0  0  0  0  0  0  0  0  0
    0.0078   -0.5546   -0.8393 H   0  0  0  0  0  0  0  0  0  0  0  0
   -0.0046   -0.6832    0.8492 H   0  0  0  0  0  0  0  0  0  0  0  0
   -1.1808    0.8450   -0.0000 N   0  0  0  0  0  4  0  0  0  0  0  0
   -1.1881    1.4298   -0.8157 H   0  0  0  0  0  0  0  0  0  0  0  0
   -2.0105    0.2807   -0.0007 H   0  0  0  0  0  0  0  0  0  0  0  0
   -1.1889    1.4294    0.8156 H   0  0  0  0  0  0  0  0  0  0  0  0
   -4.3530    0.4905   -0.6137 C   0  0  0  0  0  0  0  0  0  0  0  0
   -3.9069   -0.3828   -0.9374 H   0  0  0  0  0  0  0  0  0  0  0  0
   -3.7857    1.2424   -1.0378 H   0  0  0  0  0  0  0  0  0  0  0  0
   -5.3644    0.5398   -1.0171 H   0  0  0  0  0  0  0  0  0  0  0  0
   -4.2502    0.5961    1.2182 S   0  0  0  0  0  0  0  0  0  0  0  0
   -3.7898   -1.0653    1.4801 C   0  0  0  0  0  0  0  0  0  0  0  0
   -2.8049   -1.1373    1.6865 H   0  0  0  0  0  0  0  0  0  0  0  0
   -4.3009   -1.4621    2.2543 H   0  0  0  0  0  0  0  0  0  0  0  0
   -3.9796   -1.6246    0.6612 H   0  0  0  0  0  0  0  0  0  0  0  0
  1  5  1  0
  5  8  1  0
  1  2  1  0
  1  3  1  0
  1  4  1  0
  5  6  1  0
  5  7  1  0
  8  9  1  0
  8 10  1  0
  8 11  1  0
 12 16  1  0
 16 17  1  0
 12 13  1  0
 12 14  1  0
 12 15  1  0
 17 18  1  0
 17 19  1  0
 17 20  1  0
M  CHG  1   8   1
M  END
>  <PDB_ID>  (632) 
pdb1s3o

>  <RESIDUE_NAME>  (632) 
LEU   MET

>  <FRAG_NAME>  (632) 
ETAM   MSM

>  <FRAG_ATOM_NUM>  (632) 
fragi: 11  fragj: 9

>  <atom.prop.CHAIN_ID>  (632) 
A A A A A A A A A A A Z Z Z Z Z Z Z Z Z

>  <atom.prop.IS_HEAVY_ATOM>  (632) 
1 0 0 0 1 0 0 1 0 0 0 1 0 0 0 1 1 0 0 0

>  <DIFUSE_FUNC_ATOM>  (632) 
n/a

>  <FINAL_SINGLE_POINT_ENERGY>  (632) 
0

>  <NONCOV_INTER_ENERGY_QM>  (632) 
0

>  <FF_Energy>  (632) 
-2.35

>  <QM_Energy>  (632) 
-7.93

>  <source>  (632) 
ETAM_MSM

>  <Index>  (632) 
3801

$$$$
ETAM-pdb2y4k-B-LYS-76:MSM-pdb2y4k-B-MET-80
     RDKit          3D

 20 18  0  0  0  0  0  0  0  0999 V2000
    1.1907    0.9102    0.0000 C   0  0  0  0  0  0  0  0  0  0  0  0
    1.3420    1.2545    0.9289 H   0  0  0  0  0  0  0  0  0  0  0  0
    1.0139    1.6839   -0.6125 H   0  0  0  0  0  0  0  0  0  0  0  0
    2.1038    0.4160   -0.3315 H   0  0  0  0  0  0  0  0  0  0  0  0
    0.0000    0.0000    0.0000 C   0  0  0  0  0  0  0  0  0  0  0  0
   -0.0118   -0.5382   -0.8159 H   0  0  0  0  0  0  0  0  0  0  0  0
   -0.0128   -0.5378    0.8165 H   0  0  0  0  0  0  0  0  0  0  0  0
   -1.1907    0.9140   -0.0000 N   0  0  0  0  0  4  0  0  0  0  0  0
   -1.7975    0.6573    0.7490 H   0  0  0  0  0  0  0  0  0  0  0  0
   -0.8796    1.8534    0.1217 H   0  0  0  0  0  0  0  0  0  0  0  0
   -1.6690    0.8245   -0.8705 H   0  0  0  0  0  0  0  0  0  0  0  0
    0.4061   -0.9873   -3.9546 C   0  0  0  0  0  0  0  0  0  0  0  0
    0.1889   -1.9780   -3.7687 H   0  0  0  0  0  0  0  0  0  0  0  0
    1.3006   -0.8203   -3.4683 H   0  0  0  0  0  0  0  0  0  0  0  0
    0.5873   -0.8847   -5.0244 H   0  0  0  0  0  0  0  0  0  0  0  0
   -0.8905    0.0914   -3.3131 S   0  0  0  0  0  0  0  0  0  0  0  0
   -2.3262   -0.9493   -3.6452 C   0  0  0  0  0  0  0  0  0  0  0  0
   -2.5923   -1.4218   -2.8057 H   0  0  0  0  0  0  0  0  0  0  0  0
   -3.0808   -0.3768   -3.9630 H   0  0  0  0  0  0  0  0  0  0  0  0
   -2.0917   -1.6186   -4.3481 H   0  0  0  0  0  0  0  0  0  0  0  0
  1  5  1  0
  5  8  1  0
  1  2  1  0
  1  3  1  0
  1  4  1  0
  5  6  1  0
  5  7  1  0
  8  9  1  0
  8 10  1  0
  8 11  1  0
 12 16  1  0
 16 17  1  0
 12 13  1  0
 12 14  1  0
 12 15  1  0
 17 18  1  0
 17 19  1  0
 17 20  1  0
M  CHG  1   8   1
M  END
>  <PDB_ID>  (633) 
pdb2y4k

>  <RESIDUE_NAME>  (633) 
LYS   MET

>  <FRAG_NAME>  (633) 
ETAM   MSM

>  <FRAG_ATOM_NUM>  (633) 
fragi: 11  fragj: 9

>  <atom.prop.CHAIN_ID>  (633) 
A A A A A A A A A A A Z Z Z Z Z Z Z Z Z

>  <atom.prop.IS_HEAVY_ATOM>  (633) 
1 0 0 0 1 0 0 1 0 0 0 1 0 0 0 1 1 0 0 0

>  <DIFUSE_FUNC_ATOM>  (633) 
n/a

>  <FINAL_SINGLE_POINT_ENERGY>  (633) 
0

>  <NONCOV_INTER_ENERGY_QM>  (633) 
0

>  <FF_Energy>  (633) 
-4.82

>  <QM_Energy>  (633) 
-13.26

>  <source>  (633) 
ETAM_MSM

>  <Index>  (633) 
3803

$$$$
ETAM-pdb2y7j-A-LYS-112:MSM-pdb2y7j-A-MET-165
     RDKit          3D

 20 18  0  0  0  0  0  0  0  0999 V2000
    1.2509    0.8668    0.0000 C   0  0  0  0  0  0  0  0  0  0  0  0
    1.0040    1.7887    0.3155 H   0  0  0  0  0  0  0  0  0  0  0  0
    1.5995    0.9293   -0.9399 H   0  0  0  0  0  0  0  0  0  0  0  0
    2.0548    0.4959    0.6358 H   0  0  0  0  0  0  0  0  0  0  0  0
    0.0000    0.0000    0.0000 C   0  0  0  0  0  0  0  0  0  0  0  0
    0.0100   -0.5851   -0.8158 H   0  0  0  0  0  0  0  0  0  0  0  0
    0.0091   -0.5856    0.8161 H   0  0  0  0  0  0  0  0  0  0  0  0
   -1.2509    0.8153   -0.0000 N   0  0  0  0  0  4  0  0  0  0  0  0
   -1.6497    0.8067   -0.9154 H   0  0  0  0  0  0  0  0  0  0  0  0
   -1.8980    0.4250    0.6530 H   0  0  0  0  0  0  0  0  0  0  0  0
   -1.0316    1.7538    0.2626 H   0  0  0  0  0  0  0  0  0  0  0  0
    0.2113    2.4966   -4.3426 C   0  0  0  0  0  0  0  0  0  0  0  0
    0.3868    3.1757   -3.5886 H   0  0  0  0  0  0  0  0  0  0  0  0
   -0.7036    2.7649   -4.7323 H   0  0  0  0  0  0  0  0  0  0  0  0
    0.9719    2.6251   -5.1127 H   0  0  0  0  0  0  0  0  0  0  0  0
    0.1350    0.8116   -3.6641 S   0  0  0  0  0  0  0  0  0  0  0  0
   -0.1760   -0.1402   -5.1541 C   0  0  0  0  0  0  0  0  0  0  0  0
    0.2256   -1.0518   -5.0575 H   0  0  0  0  0  0  0  0  0  0  0  0
   -1.1625   -0.2237   -5.2974 H   0  0  0  0  0  0  0  0  0  0  0  0
    0.2362    0.3243   -5.9386 H   0  0  0  0  0  0  0  0  0  0  0  0
  1  5  1  0
  5  8  1  0
  1  2  1  0
  1  3  1  0
  1  4  1  0
  5  6  1  0
  5  7  1  0
  8  9  1  0
  8 10  1  0
  8 11  1  0
 12 16  1  0
 16 17  1  0
 12 13  1  0
 12 14  1  0
 12 15  1  0
 17 18  1  0
 17 19  1  0
 17 20  1  0
M  CHG  1   8   1
M  END
>  <PDB_ID>  (634) 
pdb2y7j

>  <RESIDUE_NAME>  (634) 
LYS   MET

>  <FRAG_NAME>  (634) 
ETAM   MSM

>  <FRAG_ATOM_NUM>  (634) 
fragi: 11  fragj: 9

>  <atom.prop.CHAIN_ID>  (634) 
A A A A A A A A A A A Z Z Z Z Z Z Z Z Z

>  <atom.prop.IS_HEAVY_ATOM>  (634) 
1 0 0 0 1 0 0 1 0 0 0 1 0 0 0 1 1 0 0 0

>  <DIFUSE_FUNC_ATOM>  (634) 
n/a

>  <FINAL_SINGLE_POINT_ENERGY>  (634) 
0

>  <NONCOV_INTER_ENERGY_QM>  (634) 
0

>  <FF_Energy>  (634) 
-5.04

>  <QM_Energy>  (634) 
-12.06

>  <source>  (634) 
ETAM_MSM

>  <Index>  (634) 
3811

$$$$
ETAM-pdb2y7j-D-LYS-112:MSM-pdb2y7j-D-MET-165
     RDKit          3D

 20 18  0  0  0  0  0  0  0  0999 V2000
    1.2497    0.8572   -0.0000 C   0  0  0  0  0  0  0  0  0  0  0  0
    1.1733    1.5279    0.7286 H   0  0  0  0  0  0  0  0  0  0  0  0
    1.3258    1.3063   -0.8826 H   0  0  0  0  0  0  0  0  0  0  0  0
    2.1358    0.2453    0.1686 H   0  0  0  0  0  0  0  0  0  0  0  0
    0.0000    0.0000    0.0000 C   0  0  0  0  0  0  0  0  0  0  0  0
    0.0092   -0.5918   -0.8163 H   0  0  0  0  0  0  0  0  0  0  0  0
    0.0087   -0.5919    0.8164 H   0  0  0  0  0  0  0  0  0  0  0  0
   -1.2497    0.8069    0.0000 N   0  0  0  0  0  4  0  0  0  0  0  0
   -1.6440    0.8075    0.9188 H   0  0  0  0  0  0  0  0  0  0  0  0
   -1.0390    1.7449   -0.2753 H   0  0  0  0  0  0  0  0  0  0  0  0
   -1.9019    0.4083   -0.6436 H   0  0  0  0  0  0  0  0  0  0  0  0
   -1.2607    4.3945    1.9249 C   0  0  0  0  0  0  0  0  0  0  0  0
   -1.6096    3.4383    2.1054 H   0  0  0  0  0  0  0  0  0  0  0  0
   -2.0809    4.8989    1.5499 H   0  0  0  0  0  0  0  0  0  0  0  0
   -0.9824    4.8459    2.8772 H   0  0  0  0  0  0  0  0  0  0  0  0
    0.0715    4.3589    0.7005 S   0  0  0  0  0  0  0  0  0  0  0  0
    0.4897    6.0518    0.5817 C   0  0  0  0  0  0  0  0  0  0  0  0
    1.2475    6.2778    1.2074 H   0  0  0  0  0  0  0  0  0  0  0  0
    0.7770    6.2839   -0.3562 H   0  0  0  0  0  0  0  0  0  0  0  0
   -0.2988    6.6327    0.8216 H   0  0  0  0  0  0  0  0  0  0  0  0
  1  5  1  0
  5  8  1  0
  1  2  1  0
  1  3  1  0
  1  4  1  0
  5  6  1  0
  5  7  1  0
  8  9  1  0
  8 10  1  0
  8 11  1  0
 12 16  1  0
 16 17  1  0
 12 13  1  0
 12 14  1  0
 12 15  1  0
 17 18  1  0
 17 19  1  0
 17 20  1  0
M  CHG  1   8   1
M  END
>  <PDB_ID>  (635) 
pdb2y7j

>  <RESIDUE_NAME>  (635) 
LYS   MET

>  <FRAG_NAME>  (635) 
ETAM   MSM

>  <FRAG_ATOM_NUM>  (635) 
fragi: 11  fragj: 9

>  <atom.prop.CHAIN_ID>  (635) 
A A A A A A A A A A A Z Z Z Z Z Z Z Z Z

>  <atom.prop.IS_HEAVY_ATOM>  (635) 
1 0 0 0 1 0 0 1 0 0 0 1 0 0 0 1 1 0 0 0

>  <DIFUSE_FUNC_ATOM>  (635) 
n/a

>  <FINAL_SINGLE_POINT_ENERGY>  (635) 
0

>  <NONCOV_INTER_ENERGY_QM>  (635) 
0

>  <FF_Energy>  (635) 
-4.4

>  <QM_Energy>  (635) 
-9.58

>  <source>  (635) 
ETAM_MSM

>  <Index>  (635) 
3841

$$$$
ETAM-pdb2yl2-A-LYS-348:MSM-pdb2yl2-A-MET-386
     RDKit          3D

 20 18  0  0  0  0  0  0  0  0999 V2000
    1.2318    0.8759    0.0000 C   0  0  0  0  0  0  0  0  0  0  0  0
    1.2155    1.4534    0.8164 H   0  0  0  0  0  0  0  0  0  0  0  0
    1.2156    1.4526   -0.8168 H   0  0  0  0  0  0  0  0  0  0  0  0
    2.1559    0.2979    0.0003 H   0  0  0  0  0  0  0  0  0  0  0  0
    0.0000    0.0000    0.0000 C   0  0  0  0  0  0  0  0  0  0  0  0
    0.0087   -0.5785   -0.8163 H   0  0  0  0  0  0  0  0  0  0  0  0
    0.0086   -0.5786    0.8165 H   0  0  0  0  0  0  0  0  0  0  0  0
   -1.2318    0.8285    0.0000 N   0  0  0  0  0  4  0  0  0  0  0  0
   -1.0511    1.6933    0.4682 H   0  0  0  0  0  0  0  0  0  0  0  0
   -1.5104    1.0109   -0.9434 H   0  0  0  0  0  0  0  0  0  0  0  0
   -1.9627    0.3385    0.4752 H   0  0  0  0  0  0  0  0  0  0  0  0
    0.2452    1.0070    4.5681 C   0  0  0  0  0  0  0  0  0  0  0  0
    1.0118    0.5366    4.0533 H   0  0  0  0  0  0  0  0  0  0  0  0
   -0.3217    0.2234    4.9416 H   0  0  0  0  0  0  0  0  0  0  0  0
    0.6814    1.5438    5.4104 H   0  0  0  0  0  0  0  0  0  0  0  0
   -0.7474    2.0206    3.4365 S   0  0  0  0  0  0  0  0  0  0  0  0
   -2.1481    2.5350    4.5057 C   0  0  0  0  0  0  0  0  0  0  0  0
   -2.9854    2.4815    3.9731 H   0  0  0  0  0  0  0  0  0  0  0  0
   -2.1909    1.9191    5.2840 H   0  0  0  0  0  0  0  0  0  0  0  0
   -1.9862    3.4677    4.8080 H   0  0  0  0  0  0  0  0  0  0  0  0
  1  5  1  0
  5  8  1  0
  1  2  1  0
  1  3  1  0
  1  4  1  0
  5  6  1  0
  5  7  1  0
  8  9  1  0
  8 10  1  0
  8 11  1  0
 12 16  1  0
 16 17  1  0
 12 13  1  0
 12 14  1  0
 12 15  1  0
 17 18  1  0
 17 19  1  0
 17 20  1  0
M  CHG  1   8   1
M  END
>  <PDB_ID>  (636) 
pdb2yl2

>  <RESIDUE_NAME>  (636) 
LYS   MET

>  <FRAG_NAME>  (636) 
ETAM   MSM

>  <FRAG_ATOM_NUM>  (636) 
fragi: 11  fragj: 9

>  <atom.prop.CHAIN_ID>  (636) 
A A A A A A A A A A A Z Z Z Z Z Z Z Z Z

>  <atom.prop.IS_HEAVY_ATOM>  (636) 
1 0 0 0 1 0 0 1 0 0 0 1 0 0 0 1 1 0 0 0

>  <DIFUSE_FUNC_ATOM>  (636) 
n/a

>  <FINAL_SINGLE_POINT_ENERGY>  (636) 
0

>  <NONCOV_INTER_ENERGY_QM>  (636) 
0

>  <FF_Energy>  (636) 
-5.36

>  <QM_Energy>  (636) 
-12.7

>  <source>  (636) 
ETAM_MSM

>  <Index>  (636) 
3853

$$$$
ETAM-pdb1sbb-C-LYS-140:MSM-pdb1sbb-B-MET-215
     RDKit          3D

 20 18  0  0  0  0  0  0  0  0999 V2000
    1.2423    0.8723    0.0000 C   0  0  0  0  0  0  0  0  0  0  0  0
    1.2248    1.4509    0.8095 H   0  0  0  0  0  0  0  0  0  0  0  0
    1.2393    1.4299   -0.8242 H   0  0  0  0  0  0  0  0  0  0  0  0
    2.1501    0.2692    0.0165 H   0  0  0  0  0  0  0  0  0  0  0  0
    0.0000    0.0000    0.0000 C   0  0  0  0  0  0  0  0  0  0  0  0
    0.0113   -0.5822   -0.8160 H   0  0  0  0  0  0  0  0  0  0  0  0
    0.0101   -0.5826    0.8162 H   0  0  0  0  0  0  0  0  0  0  0  0
   -1.2423    0.8178   -0.0000 N   0  0  0  0  0  4  0  0  0  0  0  0
   -2.0341    0.2193   -0.1251 H   0  0  0  0  0  0  0  0  0  0  0  0
   -1.3226    1.3002    0.8719 H   0  0  0  0  0  0  0  0  0  0  0  0
   -1.2031    1.4812   -0.7475 H   0  0  0  0  0  0  0  0  0  0  0  0
    1.0136   -0.9782    3.8158 C   0  0  0  0  0  0  0  0  0  0  0  0
    1.1473   -1.3991    2.8988 H   0  0  0  0  0  0  0  0  0  0  0  0
    0.2465   -1.4803    4.2588 H   0  0  0  0  0  0  0  0  0  0  0  0
    1.9193   -1.1158    4.4064 H   0  0  0  0  0  0  0  0  0  0  0  0
    0.6157    0.7733    3.6572 S   0  0  0  0  0  0  0  0  0  0  0  0
   -0.4973    0.9929    5.0733 C   0  0  0  0  0  0  0  0  0  0  0  0
   -0.5162    1.9581    5.3243 H   0  0  0  0  0  0  0  0  0  0  0  0
   -1.4118    0.6897    4.8164 H   0  0  0  0  0  0  0  0  0  0  0  0
   -0.1600    0.4489    5.8373 H   0  0  0  0  0  0  0  0  0  0  0  0
  1  5  1  0
  5  8  1  0
  1  2  1  0
  1  3  1  0
  1  4  1  0
  5  6  1  0
  5  7  1  0
  8  9  1  0
  8 10  1  0
  8 11  1  0
 12 16  1  0
 16 17  1  0
 12 13  1  0
 12 14  1  0
 12 15  1  0
 17 18  1  0
 17 19  1  0
 17 20  1  0
M  CHG  1   8   1
M  END
>  <PDB_ID>  (637) 
pdb1sbb

>  <RESIDUE_NAME>  (637) 
LYS   MET

>  <FRAG_NAME>  (637) 
ETAM   MSM

>  <FRAG_ATOM_NUM>  (637) 
fragi: 11  fragj: 9

>  <atom.prop.CHAIN_ID>  (637) 
A A A A A A A A A A A Z Z Z Z Z Z Z Z Z

>  <atom.prop.IS_HEAVY_ATOM>  (637) 
1 0 0 0 1 0 0 1 0 0 0 1 0 0 0 1 1 0 0 0

>  <DIFUSE_FUNC_ATOM>  (637) 
n/a

>  <FINAL_SINGLE_POINT_ENERGY>  (637) 
0

>  <NONCOV_INTER_ENERGY_QM>  (637) 
0

>  <FF_Energy>  (637) 
-4.28

>  <QM_Energy>  (637) 
-10.43

>  <source>  (637) 
ETAM_MSM

>  <Index>  (637) 
3870

$$$$
ETAM-pdb2yn0-A-LYS-144:MSM-pdb2yn0-A-MET-141
     RDKit          3D

 20 18  0  0  0  0  0  0  0  0999 V2000
    1.2166    0.8782    0.0000 C   0  0  0  0  0  0  0  0  0  0  0  0
    1.2930    1.2871    0.8768 H   0  0  0  0  0  0  0  0  0  0  0  0
    1.0941    1.5626   -0.6769 H   0  0  0  0  0  0  0  0  0  0  0  0
    2.1297    0.3231   -0.2144 H   0  0  0  0  0  0  0  0  0  0  0  0
    0.0000    0.0000    0.0000 C   0  0  0  0  0  0  0  0  0  0  0  0
   -0.0044   -0.5528   -0.7967 H   0  0  0  0  0  0  0  0  0  0  0  0
   -0.0041   -0.5519    0.7984 H   0  0  0  0  0  0  0  0  0  0  0  0
   -1.2166    0.8421   -0.0000 N   0  0  0  0  0  4  0  0  0  0  0  0
   -1.2288    1.3583   -0.7239 H   0  0  0  0  0  0  0  0  0  0  0  0
   -1.9426    0.3274    0.0003 H   0  0  0  0  0  0  0  0  0  0  0  0
   -1.2286    1.3590    0.7246 H   0  0  0  0  0  0  0  0  0  0  0  0
    0.4315    4.6882   -3.6039 C   0  0  0  0  0  0  0  0  0  0  0  0
    0.6256    5.2767   -2.8584 H   0  0  0  0  0  0  0  0  0  0  0  0
   -0.1630    5.1292   -4.2313 H   0  0  0  0  0  0  0  0  0  0  0  0
    1.3628    4.4363   -4.1112 H   0  0  0  0  0  0  0  0  0  0  0  0
   -0.4131    3.2280   -2.9622 S   0  0  0  0  0  0  0  0  0  0  0  0
   -0.0822    2.0224   -4.2607 C   0  0  0  0  0  0  0  0  0  0  0  0
    0.8673    1.9084   -4.3474 H   0  0  0  0  0  0  0  0  0  0  0  0
   -0.4928    1.1875   -4.0234 H   0  0  0  0  0  0  0  0  0  0  0  0
   -0.4507    2.3449   -5.0870 H   0  0  0  0  0  0  0  0  0  0  0  0
  1  5  1  0
  5  8  1  0
  1  2  1  0
  1  3  1  0
  1  4  1  0
  5  6  1  0
  5  7  1  0
  8  9  1  0
  8 10  1  0
  8 11  1  0
 12 16  1  0
 16 17  1  0
 12 13  1  0
 12 14  1  0
 12 15  1  0
 17 18  1  0
 17 19  1  0
 17 20  1  0
M  CHG  1   8   1
M  END
>  <PDB_ID>  (638) 
pdb2yn0

>  <RESIDUE_NAME>  (638) 
LYS   MET

>  <FRAG_NAME>  (638) 
ETAM   MSM

>  <FRAG_ATOM_NUM>  (638) 
fragi: 11  fragj: 9

>  <atom.prop.CHAIN_ID>  (638) 
A A A A A A A A A A A Z Z Z Z Z Z Z Z Z

>  <atom.prop.IS_HEAVY_ATOM>  (638) 
1 0 0 0 1 0 0 1 0 0 0 1 0 0 0 1 1 0 0 0

>  <DIFUSE_FUNC_ATOM>  (638) 
n/a

>  <FINAL_SINGLE_POINT_ENERGY>  (638) 
0

>  <NONCOV_INTER_ENERGY_QM>  (638) 
0

>  <FF_Energy>  (638) 
-4.81

>  <QM_Energy>  (638) 
-10.75

>  <source>  (638) 
ETAM_MSM

>  <Index>  (638) 
3871

$$$$
ETAM-pdb1sh0-B-LYS-146:MSM-pdb1sh0-B-MET-150
     RDKit          3D

 20 18  0  0  0  0  0  0  0  0999 V2000
    1.2468    0.8748   -0.0000 C   0  0  0  0  0  0  0  0  0  0  0  0
    1.0399    1.7226    0.4781 H   0  0  0  0  0  0  0  0  0  0  0  0
    1.5029    1.0624   -0.9426 H   0  0  0  0  0  0  0  0  0  0  0  0
    2.0831    0.3861    0.5000 H   0  0  0  0  0  0  0  0  0  0  0  0
    0.0000    0.0000    0.0000 C   0  0  0  0  0  0  0  0  0  0  0  0
    0.0136   -0.5839   -0.8163 H   0  0  0  0  0  0  0  0  0  0  0  0
    0.0131   -0.5831    0.8166 H   0  0  0  0  0  0  0  0  0  0  0  0
   -1.2468    0.8126   -0.0000 N   0  0  0  0  0  4  0  0  0  0  0  0
   -1.9364    0.3614    0.5647 H   0  0  0  0  0  0  0  0  0  0  0  0
   -1.0508    1.7198    0.3709 H   0  0  0  0  0  0  0  0  0  0  0  0
   -1.5861    0.8997   -0.9359 H   0  0  0  0  0  0  0  0  0  0  0  0
   -0.4938   -1.5510    3.5921 C   0  0  0  0  0  0  0  0  0  0  0  0
    0.0346   -0.6698    3.4625 H   0  0  0  0  0  0  0  0  0  0  0  0
    0.0498   -2.2525    3.0587 H   0  0  0  0  0  0  0  0  0  0  0  0
   -0.4394   -1.8189    4.6472 H   0  0  0  0  0  0  0  0  0  0  0  0
   -2.1668   -1.3978    2.9288 S   0  0  0  0  0  0  0  0  0  0  0  0
   -2.3339   -2.9854    2.0795 C   0  0  0  0  0  0  0  0  0  0  0  0
   -2.9825   -3.5571    2.5780 H   0  0  0  0  0  0  0  0  0  0  0  0
   -2.6666   -2.8270    1.1516 H   0  0  0  0  0  0  0  0  0  0  0  0
   -1.4431   -3.4347    2.0475 H   0  0  0  0  0  0  0  0  0  0  0  0
  1  5  1  0
  5  8  1  0
  1  2  1  0
  1  3  1  0
  1  4  1  0
  5  6  1  0
  5  7  1  0
  8  9  1  0
  8 10  1  0
  8 11  1  0
 12 16  1  0
 16 17  1  0
 12 13  1  0
 12 14  1  0
 12 15  1  0
 17 18  1  0
 17 19  1  0
 17 20  1  0
M  CHG  1   8   1
M  END
>  <PDB_ID>  (639) 
pdb1sh0

>  <RESIDUE_NAME>  (639) 
LYS   MET

>  <FRAG_NAME>  (639) 
ETAM   MSM

>  <FRAG_ATOM_NUM>  (639) 
fragi: 11  fragj: 9

>  <atom.prop.CHAIN_ID>  (639) 
A A A A A A A A A A A Z Z Z Z Z Z Z Z Z

>  <atom.prop.IS_HEAVY_ATOM>  (639) 
1 0 0 0 1 0 0 1 0 0 0 1 0 0 0 1 1 0 0 0

>  <DIFUSE_FUNC_ATOM>  (639) 
n/a

>  <FINAL_SINGLE_POINT_ENERGY>  (639) 
0

>  <NONCOV_INTER_ENERGY_QM>  (639) 
0

>  <FF_Energy>  (639) 
-4.36

>  <QM_Energy>  (639) 
-11.77

>  <source>  (639) 
ETAM_MSM

>  <Index>  (639) 
3875

$$$$
ETAM-pdb1sh0-B-LYS-127:MSM-pdb1sh0-B-MET-192
     RDKit          3D

 20 18  0  0  0  0  0  0  0  0999 V2000
    1.2589    0.8620   -0.0000 C   0  0  0  0  0  0  0  0  0  0  0  0
    1.1030    1.6510    0.5816 H   0  0  0  0  0  0  0  0  0  0  0  0
    1.4490    1.1454   -0.9317 H   0  0  0  0  0  0  0  0  0  0  0  0
    2.1174    0.3097    0.3818 H   0  0  0  0  0  0  0  0  0  0  0  0
    0.0000    0.0000    0.0000 C   0  0  0  0  0  0  0  0  0  0  0  0
    0.0154   -0.5943   -0.8166 H   0  0  0  0  0  0  0  0  0  0  0  0
    0.0156   -0.5937    0.8166 H   0  0  0  0  0  0  0  0  0  0  0  0
   -1.2589    0.7938   -0.0000 N   0  0  0  0  0  4  0  0  0  0  0  0
   -2.0288    0.1953    0.2207 H   0  0  0  0  0  0  0  0  0  0  0  0
   -1.1930    1.5195    0.6841 H   0  0  0  0  0  0  0  0  0  0  0  0
   -1.3968    1.1973   -0.9043 H   0  0  0  0  0  0  0  0  0  0  0  0
   -2.3130    0.6505   -4.7693 C   0  0  0  0  0  0  0  0  0  0  0  0
   -3.0605    1.2443   -4.4355 H   0  0  0  0  0  0  0  0  0  0  0  0
   -2.7276   -0.0675   -5.3492 H   0  0  0  0  0  0  0  0  0  0  0  0
   -1.6324    1.2471   -5.3767 H   0  0  0  0  0  0  0  0  0  0  0  0
   -1.4151   -0.0881   -3.3804 S   0  0  0  0  0  0  0  0  0  0  0  0
   -2.7011   -1.1424   -2.6573 C   0  0  0  0  0  0  0  0  0  0  0  0
   -2.2870   -1.7347   -1.9705 H   0  0  0  0  0  0  0  0  0  0  0  0
   -3.3946   -0.5649   -2.2339 H   0  0  0  0  0  0  0  0  0  0  0  0
   -3.1122   -1.6939   -3.3795 H   0  0  0  0  0  0  0  0  0  0  0  0
  1  5  1  0
  5  8  1  0
  1  2  1  0
  1  3  1  0
  1  4  1  0
  5  6  1  0
  5  7  1  0
  8  9  1  0
  8 10  1  0
  8 11  1  0
 12 16  1  0
 16 17  1  0
 12 13  1  0
 12 14  1  0
 12 15  1  0
 17 18  1  0
 17 19  1  0
 17 20  1  0
M  CHG  1   8   1
M  END
>  <PDB_ID>  (640) 
pdb1sh0

>  <RESIDUE_NAME>  (640) 
LYS   MET

>  <FRAG_NAME>  (640) 
ETAM   MSM

>  <FRAG_ATOM_NUM>  (640) 
fragi: 11  fragj: 9

>  <atom.prop.CHAIN_ID>  (640) 
A A A A A A A A A A A Z Z Z Z Z Z Z Z Z

>  <atom.prop.IS_HEAVY_ATOM>  (640) 
1 0 0 0 1 0 0 1 0 0 0 1 0 0 0 1 1 0 0 0

>  <DIFUSE_FUNC_ATOM>  (640) 
n/a

>  <FINAL_SINGLE_POINT_ENERGY>  (640) 
0

>  <NONCOV_INTER_ENERGY_QM>  (640) 
0

>  <FF_Energy>  (640) 
-4.54

>  <QM_Energy>  (640) 
-12.76

>  <source>  (640) 
ETAM_MSM

>  <Index>  (640) 
3876

$$$$
ETAM-pdb1si9-A-LYS-74:MSM-pdb1si9-C-MET-54
     RDKit          3D

 20 18  0  0  0  0  0  0  0  0999 V2000
    1.2665    0.8630    0.0000 C   0  0  0  0  0  0  0  0  0  0  0  0
    1.2167    1.4963    0.7658 H   0  0  0  0  0  0  0  0  0  0  0  0
    1.3073    1.3624   -0.8590 H   0  0  0  0  0  0  0  0  0  0  0  0
    2.1718    0.2641    0.1003 H   0  0  0  0  0  0  0  0  0  0  0  0
    0.0000    0.0000    0.0000 C   0  0  0  0  0  0  0  0  0  0  0  0
    0.0211   -0.5982   -0.8163 H   0  0  0  0  0  0  0  0  0  0  0  0
    0.0205   -0.5977    0.8161 H   0  0  0  0  0  0  0  0  0  0  0  0
   -1.2665    0.7813   -0.0000 N   0  0  0  0  0  4  0  0  0  0  0  0
   -1.5049    1.0275   -0.9395 H   0  0  0  0  0  0  0  0  0  0  0  0
   -1.9983    0.2274    0.3973 H   0  0  0  0  0  0  0  0  0  0  0  0
   -1.1435    1.6119    0.5422 H   0  0  0  0  0  0  0  0  0  0  0  0
   -1.1528   -4.1539    0.9144 C   0  0  0  0  0  0  0  0  0  0  0  0
   -1.6612   -3.8892    0.0824 H   0  0  0  0  0  0  0  0  0  0  0  0
   -1.3879   -3.4941    1.6429 H   0  0  0  0  0  0  0  0  0  0  0  0
   -1.4570   -5.1549    1.2203 H   0  0  0  0  0  0  0  0  0  0  0  0
    0.6119   -4.1602    0.6066 S   0  0  0  0  0  0  0  0  0  0  0  0
    0.9571   -2.6242    0.9051 C   0  0  0  0  0  0  0  0  0  0  0  0
    1.9667   -2.3926    0.8564 H   0  0  0  0  0  0  0  0  0  0  0  0
    0.5136   -1.9492    0.2554 H   0  0  0  0  0  0  0  0  0  0  0  0
    0.6694   -2.2928    1.8442 H   0  0  0  0  0  0  0  0  0  0  0  0
  1  5  1  0
  5  8  1  0
  1  2  1  0
  1  3  1  0
  1  4  1  0
  5  6  1  0
  5  7  1  0
  8  9  1  0
  8 10  1  0
  8 11  1  0
 12 16  1  0
 16 17  1  0
 12 13  1  0
 12 14  1  0
 12 15  1  0
 17 18  1  0
 17 19  1  0
 17 20  1  0
M  CHG  1   8   1
M  END
>  <PDB_ID>  (641) 
pdb1si9

>  <RESIDUE_NAME>  (641) 
LYS   MET

>  <FRAG_NAME>  (641) 
ETAM   MSM

>  <FRAG_ATOM_NUM>  (641) 
fragi: 11  fragj: 9

>  <atom.prop.CHAIN_ID>  (641) 
A A A A A A A A A A A Z Z Z Z Z Z Z Z Z

>  <atom.prop.IS_HEAVY_ATOM>  (641) 
1 0 0 0 1 0 0 1 0 0 0 1 0 0 0 1 1 0 0 0

>  <DIFUSE_FUNC_ATOM>  (641) 
n/a

>  <FINAL_SINGLE_POINT_ENERGY>  (641) 
0

>  <NONCOV_INTER_ENERGY_QM>  (641) 
0

>  <FF_Energy>  (641) 
46.26

>  <QM_Energy>  (641) 
10.96

>  <source>  (641) 
ETAM_MSM

>  <Index>  (641) 
3881

$$$$
ETAM-pdb1sip-A-LYS-45:MSM-pdb1sip-A-MET-76
     RDKit          3D

 20 18  0  0  0  0  0  0  0  0999 V2000
    1.2034    0.9356   -0.0000 C   0  0  0  0  0  0  0  0  0  0  0  0
    1.8535    0.5992    0.6771 H   0  0  0  0  0  0  0  0  0  0  0  0
    0.8845    1.8449    0.2554 H   0  0  0  0  0  0  0  0  0  0  0  0
    1.6758    0.9700   -0.9817 H   0  0  0  0  0  0  0  0  0  0  0  0
    0.0000    0.0000    0.0000 C   0  0  0  0  0  0  0  0  0  0  0  0
    0.0224   -0.5490   -0.8158 H   0  0  0  0  0  0  0  0  0  0  0  0
    0.0224   -0.5497    0.8168 H   0  0  0  0  0  0  0  0  0  0  0  0
   -1.2034    0.8535    0.0000 N   0  0  0  0  0  4  0  0  0  0  0  0
   -1.6991    0.7397    0.8631 H   0  0  0  0  0  0  0  0  0  0  0  0
   -0.9370    1.8138   -0.1025 H   0  0  0  0  0  0  0  0  0  0  0  0
   -1.8024    0.5942   -0.7606 H   0  0  0  0  0  0  0  0  0  0  0  0
    1.9602    5.0453    3.4322 C   0  0  0  0  0  0  0  0  0  0  0  0
    1.9758    4.2706    4.0854 H   0  0  0  0  0  0  0  0  0  0  0  0
    1.3454    5.7532    3.8176 H   0  0  0  0  0  0  0  0  0  0  0  0
    2.9660    5.4555    3.3412 H   0  0  0  0  0  0  0  0  0  0  0  0
    1.3699    4.5026    1.8147 S   0  0  0  0  0  0  0  0  0  0  0  0
    0.2542    3.1444    2.1717 C   0  0  0  0  0  0  0  0  0  0  0  0
    0.3836    2.4187    1.4958 H   0  0  0  0  0  0  0  0  0  0  0  0
    0.4468    2.7851    3.0856 H   0  0  0  0  0  0  0  0  0  0  0  0
   -0.6913    3.4700    2.1337 H   0  0  0  0  0  0  0  0  0  0  0  0
  1  5  1  0
  5  8  1  0
  1  2  1  0
  1  3  1  0
  1  4  1  0
  5  6  1  0
  5  7  1  0
  8  9  1  0
  8 10  1  0
  8 11  1  0
 12 16  1  0
 16 17  1  0
 12 13  1  0
 12 14  1  0
 12 15  1  0
 17 18  1  0
 17 19  1  0
 17 20  1  0
M  CHG  1   8   1
M  END
>  <PDB_ID>  (642) 
pdb1sip

>  <RESIDUE_NAME>  (642) 
LYS   MET

>  <FRAG_NAME>  (642) 
ETAM   MSM

>  <FRAG_ATOM_NUM>  (642) 
fragi: 11  fragj: 9

>  <atom.prop.CHAIN_ID>  (642) 
A A A A A A A A A A A Z Z Z Z Z Z Z Z Z

>  <atom.prop.IS_HEAVY_ATOM>  (642) 
1 0 0 0 1 0 0 1 0 0 0 1 0 0 0 1 1 0 0 0

>  <DIFUSE_FUNC_ATOM>  (642) 
n/a

>  <FINAL_SINGLE_POINT_ENERGY>  (642) 
0

>  <NONCOV_INTER_ENERGY_QM>  (642) 
0

>  <FF_Energy>  (642) 
41.48

>  <QM_Energy>  (642) 
4.63

>  <source>  (642) 
ETAM_MSM

>  <Index>  (642) 
3883

$$$$
ETAM-pdb1sj7-C-LYS-533:MSM-pdb1sj7-C-MET-536
     RDKit          3D

 20 18  0  0  0  0  0  0  0  0999 V2000
    1.3537    0.8143    0.0000 C   0  0  0  0  0  0  0  0  0  0  0  0
    1.1747    1.7113    0.3906 H   0  0  0  0  0  0  0  0  0  0  0  0
    1.6605    0.9029   -0.9419 H   0  0  0  0  0  0  0  0  0  0  0  0
    2.1602    0.3566    0.5729 H   0  0  0  0  0  0  0  0  0  0  0  0
    0.0000    0.0000    0.0000 C   0  0  0  0  0  0  0  0  0  0  0  0
   -0.0055   -0.6085   -0.8165 H   0  0  0  0  0  0  0  0  0  0  0  0
   -0.0052   -0.6082    0.8161 H   0  0  0  0  0  0  0  0  0  0  0  0
   -1.3537    0.7988   -0.0000 N   0  0  0  0  0  4  0  0  0  0  0  0
   -1.1789    1.6654   -0.4383 H   0  0  0  0  0  0  0  0  0  0  0  0
   -2.0079    0.2597   -0.5043 H   0  0  0  0  0  0  0  0  0  0  0  0
   -1.6230    0.9127    0.9417 H   0  0  0  0  0  0  0  0  0  0  0  0
   -2.1918   -1.2079    4.7770 C   0  0  0  0  0  0  0  0  0  0  0  0
   -2.8900   -0.7446    5.3335 H   0  0  0  0  0  0  0  0  0  0  0  0
   -1.8474   -2.0011    5.2929 H   0  0  0  0  0  0  0  0  0  0  0  0
   -2.6353   -1.5448    3.8400 H   0  0  0  0  0  0  0  0  0  0  0  0
   -0.8277   -0.0631    4.3981 S   0  0  0  0  0  0  0  0  0  0  0  0
   -1.2038    0.2908    2.6736 C   0  0  0  0  0  0  0  0  0  0  0  0
   -2.1954    0.3422    2.5543 H   0  0  0  0  0  0  0  0  0  0  0  0
   -0.7905    1.1641    2.4168 H   0  0  0  0  0  0  0  0  0  0  0  0
   -0.8339   -0.4373    2.0974 H   0  0  0  0  0  0  0  0  0  0  0  0
  1  5  1  0
  5  8  1  0
  1  2  1  0
  1  3  1  0
  1  4  1  0
  5  6  1  0
  5  7  1  0
  8  9  1  0
  8 10  1  0
  8 11  1  0
 12 16  1  0
 16 17  1  0
 12 13  1  0
 12 14  1  0
 12 15  1  0
 17 18  1  0
 17 19  1  0
 17 20  1  0
M  CHG  1   8   1
M  END
>  <PDB_ID>  (643) 
pdb1sj7

>  <RESIDUE_NAME>  (643) 
LYS   MET

>  <FRAG_NAME>  (643) 
ETAM   MSM

>  <FRAG_ATOM_NUM>  (643) 
fragi: 11  fragj: 9

>  <atom.prop.CHAIN_ID>  (643) 
A A A A A A A A A A A Z Z Z Z Z Z Z Z Z

>  <atom.prop.IS_HEAVY_ATOM>  (643) 
1 0 0 0 1 0 0 1 0 0 0 1 0 0 0 1 1 0 0 0

>  <DIFUSE_FUNC_ATOM>  (643) 
n/a

>  <FINAL_SINGLE_POINT_ENERGY>  (643) 
0

>  <NONCOV_INTER_ENERGY_QM>  (643) 
0

>  <FF_Energy>  (643) 
38.71

>  <QM_Energy>  (643) 
8.91

>  <source>  (643) 
ETAM_MSM

>  <Index>  (643) 
3884

$$$$
ETAM-pdb1sja-A-LYS-263:MSM-pdb1sja-A-MET-292
     RDKit          3D

 20 18  0  0  0  0  0  0  0  0999 V2000
    1.2518    0.8654    0.0000 C   0  0  0  0  0  0  0  0  0  0  0  0
    1.0578    1.7037    0.5047 H   0  0  0  0  0  0  0  0  0  0  0  0
    1.4862    1.0847   -0.9446 H   0  0  0  0  0  0  0  0  0  0  0  0
    2.1002    0.3638    0.4658 H   0  0  0  0  0  0  0  0  0  0  0  0
    0.0000    0.0000    0.0000 C   0  0  0  0  0  0  0  0  0  0  0  0
    0.0249   -0.5990   -0.8161 H   0  0  0  0  0  0  0  0  0  0  0  0
    0.0247   -0.5990    0.8166 H   0  0  0  0  0  0  0  0  0  0  0  0
   -1.2518    0.7741   -0.0000 N   0  0  0  0  0  4  0  0  0  0  0  0
   -1.6938    0.7045    0.8966 H   0  0  0  0  0  0  0  0  0  0  0  0
   -1.0562    1.7373   -0.1959 H   0  0  0  0  0  0  0  0  0  0  0  0
   -1.8730    0.4159   -0.7011 H   0  0  0  0  0  0  0  0  0  0  0  0
    1.3159    1.8456   -3.4511 C   0  0  0  0  0  0  0  0  0  0  0  0
    1.5451    0.9547   -2.9812 H   0  0  0  0  0  0  0  0  0  0  0  0
    2.0655    2.4925   -3.1540 H   0  0  0  0  0  0  0  0  0  0  0  0
    1.4011    1.6950   -4.5274 H   0  0  0  0  0  0  0  0  0  0  0  0
   -0.3003    2.4537   -2.9036 S   0  0  0  0  0  0  0  0  0  0  0  0
   -0.3119    4.1325   -3.6277 C   0  0  0  0  0  0  0  0  0  0  0  0
   -1.2552    4.3961   -3.8033 H   0  0  0  0  0  0  0  0  0  0  0  0
    0.1073    4.7605   -2.9797 H   0  0  0  0  0  0  0  0  0  0  0  0
    0.2057    4.1151   -4.4777 H   0  0  0  0  0  0  0  0  0  0  0  0
  1  5  1  0
  5  8  1  0
  1  2  1  0
  1  3  1  0
  1  4  1  0
  5  6  1  0
  5  7  1  0
  8  9  1  0
  8 10  1  0
  8 11  1  0
 12 16  1  0
 16 17  1  0
 12 13  1  0
 12 14  1  0
 12 15  1  0
 17 18  1  0
 17 19  1  0
 17 20  1  0
M  CHG  1   8   1
M  END
>  <PDB_ID>  (644) 
pdb1sja

>  <RESIDUE_NAME>  (644) 
LYS   MET

>  <FRAG_NAME>  (644) 
ETAM   MSM

>  <FRAG_ATOM_NUM>  (644) 
fragi: 11  fragj: 9

>  <atom.prop.CHAIN_ID>  (644) 
A A A A A A A A A A A Z Z Z Z Z Z Z Z Z

>  <atom.prop.IS_HEAVY_ATOM>  (644) 
1 0 0 0 1 0 0 1 0 0 0 1 0 0 0 1 1 0 0 0

>  <DIFUSE_FUNC_ATOM>  (644) 
n/a

>  <FINAL_SINGLE_POINT_ENERGY>  (644) 
0

>  <NONCOV_INTER_ENERGY_QM>  (644) 
0

>  <FF_Energy>  (644) 
-4.53

>  <QM_Energy>  (644) 
-12.65

>  <source>  (644) 
ETAM_MSM

>  <Index>  (644) 
3888

$$$$
ETAM-pdb1sov-A-LYS-62:MSM-pdb1sov-A-MET-58
     RDKit          3D

 20 18  0  0  0  0  0  0  0  0999 V2000
    1.2315    0.9059   -0.0000 C   0  0  0  0  0  0  0  0  0  0  0  0
    1.3005    1.3368    0.8908 H   0  0  0  0  0  0  0  0  0  0  0  0
    1.1183    1.5853   -0.7131 H   0  0  0  0  0  0  0  0  0  0  0  0
    2.1355    0.3279   -0.1918 H   0  0  0  0  0  0  0  0  0  0  0  0
    0.0000    0.0000    0.0000 C   0  0  0  0  0  0  0  0  0  0  0  0
    0.0251   -0.5719   -0.8163 H   0  0  0  0  0  0  0  0  0  0  0  0
    0.0251   -0.5724    0.8165 H   0  0  0  0  0  0  0  0  0  0  0  0
   -1.2315    0.8153   -0.0000 N   0  0  0  0  0  4  0  0  0  0  0  0
   -1.1037    1.6188   -0.5839 H   0  0  0  0  0  0  0  0  0  0  0  0
   -1.9966    0.2711   -0.3489 H   0  0  0  0  0  0  0  0  0  0  0  0
   -1.4374    1.1144    0.9333 H   0  0  0  0  0  0  0  0  0  0  0  0
    0.5641   -1.7144    3.6019 C   0  0  0  0  0  0  0  0  0  0  0  0
    1.0662   -2.0373    2.7841 H   0  0  0  0  0  0  0  0  0  0  0  0
   -0.3421   -2.1655    3.6008 H   0  0  0  0  0  0  0  0  0  0  0  0
    1.1109   -2.0091    4.4975 H   0  0  0  0  0  0  0  0  0  0  0  0
    0.3808    0.0808    3.5679 S   0  0  0  0  0  0  0  0  0  0  0  0
   -0.9898    0.3582    4.7046 C   0  0  0  0  0  0  0  0  0  0  0  0
   -0.6314    0.4981    5.6267 H   0  0  0  0  0  0  0  0  0  0  0  0
   -1.4997    1.1683    4.4162 H   0  0  0  0  0  0  0  0  0  0  0  0
   -1.5928   -0.4388    4.6959 H   0  0  0  0  0  0  0  0  0  0  0  0
  1  5  1  0
  5  8  1  0
  1  2  1  0
  1  3  1  0
  1  4  1  0
  5  6  1  0
  5  7  1  0
  8  9  1  0
  8 10  1  0
  8 11  1  0
 12 16  1  0
 16 17  1  0
 12 13  1  0
 12 14  1  0
 12 15  1  0
 17 18  1  0
 17 19  1  0
 17 20  1  0
M  CHG  1   8   1
M  END
>  <PDB_ID>  (645) 
pdb1sov

>  <RESIDUE_NAME>  (645) 
LYS   MET

>  <FRAG_NAME>  (645) 
ETAM   MSM

>  <FRAG_ATOM_NUM>  (645) 
fragi: 11  fragj: 9

>  <atom.prop.CHAIN_ID>  (645) 
A A A A A A A A A A A Z Z Z Z Z Z Z Z Z

>  <atom.prop.IS_HEAVY_ATOM>  (645) 
1 0 0 0 1 0 0 1 0 0 0 1 0 0 0 1 1 0 0 0

>  <DIFUSE_FUNC_ATOM>  (645) 
n/a

>  <FINAL_SINGLE_POINT_ENERGY>  (645) 
0

>  <NONCOV_INTER_ENERGY_QM>  (645) 
0

>  <FF_Energy>  (645) 
-4.1

>  <QM_Energy>  (645) 
-10.8

>  <source>  (645) 
ETAM_MSM

>  <Index>  (645) 
3912

$$$$
ETAM-pdb1sov-B-LYS-62:MSM-pdb1sov-B-MET-58
     RDKit          3D

 20 18  0  0  0  0  0  0  0  0999 V2000
    1.2385    0.9021   -0.0000 C   0  0  0  0  0  0  0  0  0  0  0  0
    1.1645    1.5281    0.7759 H   0  0  0  0  0  0  0  0  0  0  0  0
    1.2402    1.4246   -0.8519 H   0  0  0  0  0  0  0  0  0  0  0  0
    2.1682    0.3385    0.0792 H   0  0  0  0  0  0  0  0  0  0  0  0
    0.0000    0.0000    0.0000 C   0  0  0  0  0  0  0  0  0  0  0  0
    0.0068   -0.5594   -0.8167 H   0  0  0  0  0  0  0  0  0  0  0  0
    0.0057   -0.5594    0.8163 H   0  0  0  0  0  0  0  0  0  0  0  0
   -1.2385    0.8582   -0.0000 N   0  0  0  0  0  4  0  0  0  0  0  0
   -1.0327    1.7210   -0.4533 H   0  0  0  0  0  0  0  0  0  0  0  0
   -1.9624    0.3785   -0.4894 H   0  0  0  0  0  0  0  0  0  0  0  0
   -1.5150    1.0250    0.9425 H   0  0  0  0  0  0  0  0  0  0  0  0
    0.2702   -2.0186    3.6024 C   0  0  0  0  0  0  0  0  0  0  0  0
    0.8637   -2.3847    2.8668 H   0  0  0  0  0  0  0  0  0  0  0  0
   -0.6552   -2.4095    3.4664 H   0  0  0  0  0  0  0  0  0  0  0  0
    0.6569   -2.3472    4.5671 H   0  0  0  0  0  0  0  0  0  0  0  0
    0.2187   -0.2195    3.5440 S   0  0  0  0  0  0  0  0  0  0  0  0
   -1.4267    0.0409    4.2600 C   0  0  0  0  0  0  0  0  0  0  0  0
   -1.3275    0.4724    5.1542 H   0  0  0  0  0  0  0  0  0  0  0  0
   -1.9546    0.6319    3.6542 H   0  0  0  0  0  0  0  0  0  0  0  0
   -1.8827   -0.8409    4.3568 H   0  0  0  0  0  0  0  0  0  0  0  0
  1  5  1  0
  5  8  1  0
  1  2  1  0
  1  3  1  0
  1  4  1  0
  5  6  1  0
  5  7  1  0
  8  9  1  0
  8 10  1  0
  8 11  1  0
 12 16  1  0
 16 17  1  0
 12 13  1  0
 12 14  1  0
 12 15  1  0
 17 18  1  0
 17 19  1  0
 17 20  1  0
M  CHG  1   8   1
M  END
>  <PDB_ID>  (646) 
pdb1sov

>  <RESIDUE_NAME>  (646) 
LYS   MET

>  <FRAG_NAME>  (646) 
ETAM   MSM

>  <FRAG_ATOM_NUM>  (646) 
fragi: 11  fragj: 9

>  <atom.prop.CHAIN_ID>  (646) 
A A A A A A A A A A A Z Z Z Z Z Z Z Z Z

>  <atom.prop.IS_HEAVY_ATOM>  (646) 
1 0 0 0 1 0 0 1 0 0 0 1 0 0 0 1 1 0 0 0

>  <DIFUSE_FUNC_ATOM>  (646) 
n/a

>  <FINAL_SINGLE_POINT_ENERGY>  (646) 
0

>  <NONCOV_INTER_ENERGY_QM>  (646) 
0

>  <FF_Energy>  (646) 
-3.53

>  <QM_Energy>  (646) 
-9.27

>  <source>  (646) 
ETAM_MSM

>  <Index>  (646) 
3913

$$$$
ETAM-pdb1su4-A-LYS-7:MSM-pdb1su4-A-MET-1
     RDKit          3D

 20 18  0  0  0  0  0  0  0  0999 V2000
    1.2647    0.8679    0.0000 C   0  0  0  0  0  0  0  0  0  0  0  0
    1.1378    1.6074   -0.6575 H   0  0  0  0  0  0  0  0  0  0  0  0
    2.0359    0.2980   -0.2759 H   0  0  0  0  0  0  0  0  0  0  0  0
    1.4815    1.3020    0.9760 H   0  0  0  0  0  0  0  0  0  0  0  0
    0.0000    0.0000    0.0000 C   0  0  0  0  0  0  0  0  0  0  0  0
    0.0167   -0.5914   -0.8160 H   0  0  0  0  0  0  0  0  0  0  0  0
    0.0171   -0.5917    0.8161 H   0  0  0  0  0  0  0  0  0  0  0  0
   -1.2647    0.7966    0.0000 N   0  0  0  0  0  4  0  0  0  0  0  0
   -1.8822    0.4329   -0.6953 H   0  0  0  0  0  0  0  0  0  0  0  0
   -1.6937    0.7307    0.8989 H   0  0  0  0  0  0  0  0  0  0  0  0
   -1.0519    1.7502   -0.2032 H   0  0  0  0  0  0  0  0  0  0  0  0
   -3.6318   -3.0036    0.4044 C   0  0  0  0  0  0  0  0  0  0  0  0
   -4.3252   -2.7100    1.1134 H   0  0  0  0  0  0  0  0  0  0  0  0
   -2.8707   -3.4352    0.9563 H   0  0  0  0  0  0  0  0  0  0  0  0
   -4.0863   -3.7797   -0.2114 H   0  0  0  0  0  0  0  0  0  0  0  0
   -3.0130   -1.5656   -0.5134 S   0  0  0  0  0  0  0  0  0  0  0  0
   -4.5073   -0.6049   -0.7049 C   0  0  0  0  0  0  0  0  0  0  0  0
   -4.8160   -0.6454   -1.6571 H   0  0  0  0  0  0  0  0  0  0  0  0
   -5.2244   -0.9728   -0.1101 H   0  0  0  0  0  0  0  0  0  0  0  0
   -4.3300    0.3487   -0.4562 H   0  0  0  0  0  0  0  0  0  0  0  0
  1  5  1  0
  5  8  1  0
  1  2  1  0
  1  3  1  0
  1  4  1  0
  5  6  1  0
  5  7  1  0
  8  9  1  0
  8 10  1  0
  8 11  1  0
 12 16  1  0
 16 17  1  0
 12 13  1  0
 12 14  1  0
 12 15  1  0
 17 18  1  0
 17 19  1  0
 17 20  1  0
M  CHG  1   8   1
M  END
>  <PDB_ID>  (647) 
pdb1su4

>  <RESIDUE_NAME>  (647) 
LYS   MET

>  <FRAG_NAME>  (647) 
ETAM   MSM

>  <FRAG_ATOM_NUM>  (647) 
fragi: 11  fragj: 9

>  <atom.prop.CHAIN_ID>  (647) 
A A A A A A A A A A A Z Z Z Z Z Z Z Z Z

>  <atom.prop.IS_HEAVY_ATOM>  (647) 
1 0 0 0 1 0 0 1 0 0 0 1 0 0 0 1 1 0 0 0

>  <DIFUSE_FUNC_ATOM>  (647) 
n/a

>  <FINAL_SINGLE_POINT_ENERGY>  (647) 
0

>  <NONCOV_INTER_ENERGY_QM>  (647) 
0

>  <FF_Energy>  (647) 
-2.66

>  <QM_Energy>  (647) 
-10.99

>  <source>  (647) 
ETAM_MSM

>  <Index>  (647) 
3941

$$$$
ETAM-pdb1sul-A-LYS-190:MSM-pdb1sul-A-MET-1
     RDKit          3D

 20 18  0  0  0  0  0  0  0  0999 V2000
    1.2381    0.8973   -0.0000 C   0  0  0  0  0  0  0  0  0  0  0  0
    1.2546    1.3947   -0.8621 H   0  0  0  0  0  0  0  0  0  0  0  0
    2.0395    0.3114    0.0754 H   0  0  0  0  0  0  0  0  0  0  0  0
    1.2113    1.5998    0.8330 H   0  0  0  0  0  0  0  0  0  0  0  0
    0.0000    0.0000    0.0000 C   0  0  0  0  0  0  0  0  0  0  0  0
    0.0109   -0.5666   -0.8164 H   0  0  0  0  0  0  0  0  0  0  0  0
    0.0108   -0.5666    0.8160 H   0  0  0  0  0  0  0  0  0  0  0  0
   -1.2381    0.8416   -0.0000 N   0  0  0  0  0  4  0  0  0  0  0  0
   -2.0120    0.2844    0.2935 H   0  0  0  0  0  0  0  0  0  0  0  0
   -1.1135    1.6067    0.6289 H   0  0  0  0  0  0  0  0  0  0  0  0
   -1.4003    1.1857   -0.9228 H   0  0  0  0  0  0  0  0  0  0  0  0
   -2.3618   -2.0048    2.9003 C   0  0  0  0  0  0  0  0  0  0  0  0
   -1.4158   -2.3909    2.9651 H   0  0  0  0  0  0  0  0  0  0  0  0
   -2.9815   -2.7172    3.2957 H   0  0  0  0  0  0  0  0  0  0  0  0
   -2.4150   -1.1137    3.5258 H   0  0  0  0  0  0  0  0  0  0  0  0
   -2.7964   -1.6685    1.1746 S   0  0  0  0  0  0  0  0  0  0  0  0
   -2.2347   -3.1653    0.3613 C   0  0  0  0  0  0  0  0  0  0  0  0
   -1.6803   -2.9250   -0.4360 H   0  0  0  0  0  0  0  0  0  0  0  0
   -1.6839   -3.7063    0.9986 H   0  0  0  0  0  0  0  0  0  0  0  0
   -3.0254   -3.7030    0.0662 H   0  0  0  0  0  0  0  0  0  0  0  0
  1  5  1  0
  5  8  1  0
  1  2  1  0
  1  3  1  0
  1  4  1  0
  5  6  1  0
  5  7  1  0
  8  9  1  0
  8 10  1  0
  8 11  1  0
 12 16  1  0
 16 17  1  0
 12 13  1  0
 12 14  1  0
 12 15  1  0
 17 18  1  0
 17 19  1  0
 17 20  1  0
M  CHG  1   8   1
M  END
>  <PDB_ID>  (648) 
pdb1sul

>  <RESIDUE_NAME>  (648) 
LYS   MET

>  <FRAG_NAME>  (648) 
ETAM   MSM

>  <FRAG_ATOM_NUM>  (648) 
fragi: 11  fragj: 9

>  <atom.prop.CHAIN_ID>  (648) 
A A A A A A A A A A A Z Z Z Z Z Z Z Z Z

>  <atom.prop.IS_HEAVY_ATOM>  (648) 
1 0 0 0 1 0 0 1 0 0 0 1 0 0 0 1 1 0 0 0

>  <DIFUSE_FUNC_ATOM>  (648) 
n/a

>  <FINAL_SINGLE_POINT_ENERGY>  (648) 
0

>  <NONCOV_INTER_ENERGY_QM>  (648) 
0

>  <FF_Energy>  (648) 
-5.13

>  <QM_Energy>  (648) 
-15.88

>  <source>  (648) 
ETAM_MSM

>  <Index>  (648) 
3948

$$$$
ETAM-pdb1svd-A-LYS-74:MSM-pdb1svd-A-MET-19
     RDKit          3D

 20 18  0  0  0  0  0  0  0  0999 V2000
    1.2889    0.8102    0.0000 C   0  0  0  0  0  0  0  0  0  0  0  0
    1.2290    1.4949    0.7190 H   0  0  0  0  0  0  0  0  0  0  0  0
    1.3841    1.2473   -0.8873 H   0  0  0  0  0  0  0  0  0  0  0  0
    2.1536    0.1721    0.1823 H   0  0  0  0  0  0  0  0  0  0  0  0
    0.0000    0.0000    0.0000 C   0  0  0  0  0  0  0  0  0  0  0  0
   -0.0158   -0.6012   -0.8164 H   0  0  0  0  0  0  0  0  0  0  0  0
   -0.0163   -0.6015    0.8160 H   0  0  0  0  0  0  0  0  0  0  0  0
   -1.2889    0.8229    0.0000 N   0  0  0  0  0  4  0  0  0  0  0  0
   -1.6249    0.8750   -0.9323 H   0  0  0  0  0  0  0  0  0  0  0  0
   -1.9494    0.3663    0.5854 H   0  0  0  0  0  0  0  0  0  0  0  0
   -1.0794    1.7291    0.3484 H   0  0  0  0  0  0  0  0  0  0  0  0
   -3.0949   -0.5717    4.3459 C   0  0  0  0  0  0  0  0  0  0  0  0
   -3.9982   -0.2147    4.0149 H   0  0  0  0  0  0  0  0  0  0  0  0
   -2.5673    0.2573    4.6428 H   0  0  0  0  0  0  0  0  0  0  0  0
   -3.2564   -1.2247    5.2036 H   0  0  0  0  0  0  0  0  0  0  0  0
   -2.2163   -1.4002    2.9646 S   0  0  0  0  0  0  0  0  0  0  0  0
   -3.2800   -2.8123    2.6537 C   0  0  0  0  0  0  0  0  0  0  0  0
   -4.2375   -2.5256    2.6975 H   0  0  0  0  0  0  0  0  0  0  0  0
   -3.0845   -3.1845    1.7459 H   0  0  0  0  0  0  0  0  0  0  0  0
   -3.1117   -3.5156    3.3455 H   0  0  0  0  0  0  0  0  0  0  0  0
  1  5  1  0
  5  8  1  0
  1  2  1  0
  1  3  1  0
  1  4  1  0
  5  6  1  0
  5  7  1  0
  8  9  1  0
  8 10  1  0
  8 11  1  0
 12 16  1  0
 16 17  1  0
 12 13  1  0
 12 14  1  0
 12 15  1  0
 17 18  1  0
 17 19  1  0
 17 20  1  0
M  CHG  1   8   1
M  END
>  <PDB_ID>  (649) 
pdb1svd

>  <RESIDUE_NAME>  (649) 
LYS   MET

>  <FRAG_NAME>  (649) 
ETAM   MSM

>  <FRAG_ATOM_NUM>  (649) 
fragi: 11  fragj: 9

>  <atom.prop.CHAIN_ID>  (649) 
A A A A A A A A A A A Z Z Z Z Z Z Z Z Z

>  <atom.prop.IS_HEAVY_ATOM>  (649) 
1 0 0 0 1 0 0 1 0 0 0 1 0 0 0 1 1 0 0 0

>  <DIFUSE_FUNC_ATOM>  (649) 
n/a

>  <FINAL_SINGLE_POINT_ENERGY>  (649) 
0

>  <NONCOV_INTER_ENERGY_QM>  (649) 
0

>  <FF_Energy>  (649) 
-4.88

>  <QM_Energy>  (649) 
-13.22

>  <source>  (649) 
ETAM_MSM

>  <Index>  (649) 
3950

$$$$
ETAM-pdb2yxy-A-LYS-14:MSM-pdb2yxy-A-MET-54
     RDKit          3D

 20 18  0  0  0  0  0  0  0  0999 V2000
    1.2545    0.8367   -0.0000 C   0  0  0  0  0  0  0  0  0  0  0  0
    2.0425    0.2288   -0.1009 H   0  0  0  0  0  0  0  0  0  0  0  0
    1.3140    1.3195    0.8731 H   0  0  0  0  0  0  0  0  0  0  0  0
    1.2574    1.5629   -0.8128 H   0  0  0  0  0  0  0  0  0  0  0  0
    0.0000    0.0000    0.0000 C   0  0  0  0  0  0  0  0  0  0  0  0
    0.0097   -0.6056   -0.8161 H   0  0  0  0  0  0  0  0  0  0  0  0
    0.0093   -0.6062    0.8165 H   0  0  0  0  0  0  0  0  0  0  0  0
   -1.2545    0.7840   -0.0000 N   0  0  0  0  0  4  0  0  0  0  0  0
   -1.9905    0.2412   -0.4075 H   0  0  0  0  0  0  0  0  0  0  0  0
   -1.5011    1.0234    0.9403 H   0  0  0  0  0  0  0  0  0  0  0  0
   -1.1269    1.6223   -0.5328 H   0  0  0  0  0  0  0  0  0  0  0  0
   -1.9501    2.2241   -3.9456 C   0  0  0  0  0  0  0  0  0  0  0  0
   -0.9458    2.1758   -4.1934 H   0  0  0  0  0  0  0  0  0  0  0  0
   -2.3739    2.7671   -4.7190 H   0  0  0  0  0  0  0  0  0  0  0  0
   -2.3530    1.2121   -3.9863 H   0  0  0  0  0  0  0  0  0  0  0  0
   -2.1809    3.0671   -2.3722 S   0  0  0  0  0  0  0  0  0  0  0  0
   -3.9100    2.9995   -2.1771 C   0  0  0  0  0  0  0  0  0  0  0  0
   -4.1932    3.4382   -1.3124 H   0  0  0  0  0  0  0  0  0  0  0  0
   -4.3771    3.4755   -2.9355 H   0  0  0  0  0  0  0  0  0  0  0  0
   -4.2343    2.0429   -2.1621 H   0  0  0  0  0  0  0  0  0  0  0  0
  1  5  1  0
  5  8  1  0
  1  2  1  0
  1  3  1  0
  1  4  1  0
  5  6  1  0
  5  7  1  0
  8  9  1  0
  8 10  1  0
  8 11  1  0
 12 16  1  0
 16 17  1  0
 12 13  1  0
 12 14  1  0
 12 15  1  0
 17 18  1  0
 17 19  1  0
 17 20  1  0
M  CHG  1   8   1
M  END
>  <PDB_ID>  (650) 
pdb2yxy

>  <RESIDUE_NAME>  (650) 
LYS   MET

>  <FRAG_NAME>  (650) 
ETAM   MSM

>  <FRAG_ATOM_NUM>  (650) 
fragi: 11  fragj: 9

>  <atom.prop.CHAIN_ID>  (650) 
A A A A A A A A A A A Z Z Z Z Z Z Z Z Z

>  <atom.prop.IS_HEAVY_ATOM>  (650) 
1 0 0 0 1 0 0 1 0 0 0 1 0 0 0 1 1 0 0 0

>  <DIFUSE_FUNC_ATOM>  (650) 
n/a

>  <FINAL_SINGLE_POINT_ENERGY>  (650) 
0

>  <NONCOV_INTER_ENERGY_QM>  (650) 
0

>  <FF_Energy>  (650) 
-5.16

>  <QM_Energy>  (650) 
-14.28

>  <source>  (650) 
ETAM_MSM

>  <Index>  (650) 
3952

$$$$
ETAM-pdb2yxy-A-LYS-27:MSM-pdb2yxy-A-MET-23
     RDKit          3D

 20 18  0  0  0  0  0  0  0  0999 V2000
    1.2302    0.9071    0.0000 C   0  0  0  0  0  0  0  0  0  0  0  0
    1.2332    1.4317    0.8441 H   0  0  0  0  0  0  0  0  0  0  0  0
    1.1733    1.5123   -0.7857 H   0  0  0  0  0  0  0  0  0  0  0  0
    2.1523    0.3292   -0.0617 H   0  0  0  0  0  0  0  0  0  0  0  0
    0.0000    0.0000    0.0000 C   0  0  0  0  0  0  0  0  0  0  0  0
    0.0068   -0.5564   -0.8166 H   0  0  0  0  0  0  0  0  0  0  0  0
    0.0065   -0.5567    0.8167 H   0  0  0  0  0  0  0  0  0  0  0  0
   -1.2302    0.8625   -0.0000 N   0  0  0  0  0  4  0  0  0  0  0  0
   -0.9548    1.8204    0.0404 H   0  0  0  0  0  0  0  0  0  0  0  0
   -1.7468    0.6916   -0.8363 H   0  0  0  0  0  0  0  0  0  0  0  0
   -1.7864    0.6342    0.7962 H   0  0  0  0  0  0  0  0  0  0  0  0
    0.1033   -0.6605    4.4470 C   0  0  0  0  0  0  0  0  0  0  0  0
    0.6204   -1.3236    3.8543 H   0  0  0  0  0  0  0  0  0  0  0  0
   -0.7874   -1.1289    4.6586 H   0  0  0  0  0  0  0  0  0  0  0  0
    0.6530   -0.5520    5.3819 H   0  0  0  0  0  0  0  0  0  0  0  0
   -0.1846    0.9033    3.5660 S   0  0  0  0  0  0  0  0  0  0  0  0
   -1.6114    1.6406    4.4826 C   0  0  0  0  0  0  0  0  0  0  0  0
   -1.8824    2.4701    4.0117 H   0  0  0  0  0  0  0  0  0  0  0  0
   -2.3497    0.9783    4.4858 H   0  0  0  0  0  0  0  0  0  0  0  0
   -1.3127    1.8398    5.4066 H   0  0  0  0  0  0  0  0  0  0  0  0
  1  5  1  0
  5  8  1  0
  1  2  1  0
  1  3  1  0
  1  4  1  0
  5  6  1  0
  5  7  1  0
  8  9  1  0
  8 10  1  0
  8 11  1  0
 12 16  1  0
 16 17  1  0
 12 13  1  0
 12 14  1  0
 12 15  1  0
 17 18  1  0
 17 19  1  0
 17 20  1  0
M  CHG  1   8   1
M  END
>  <PDB_ID>  (651) 
pdb2yxy

>  <RESIDUE_NAME>  (651) 
LYS   MET

>  <FRAG_NAME>  (651) 
ETAM   MSM

>  <FRAG_ATOM_NUM>  (651) 
fragi: 11  fragj: 9

>  <atom.prop.CHAIN_ID>  (651) 
A A A A A A A A A A A Z Z Z Z Z Z Z Z Z

>  <atom.prop.IS_HEAVY_ATOM>  (651) 
1 0 0 0 1 0 0 1 0 0 0 1 0 0 0 1 1 0 0 0

>  <DIFUSE_FUNC_ATOM>  (651) 
n/a

>  <FINAL_SINGLE_POINT_ENERGY>  (651) 
0

>  <NONCOV_INTER_ENERGY_QM>  (651) 
0

>  <FF_Energy>  (651) 
-5.04

>  <QM_Energy>  (651) 
-12.56

>  <source>  (651) 
ETAM_MSM

>  <Index>  (651) 
3953

$$$$
ETAM-pdb1t06-A-LYS-45:MSM-pdb1t06-A-MET-1
     RDKit          3D

 20 18  0  0  0  0  0  0  0  0999 V2000
    1.2395    0.8702   -0.0000 C   0  0  0  0  0  0  0  0  0  0  0  0
    1.2017    1.4823    0.7864 H   0  0  0  0  0  0  0  0  0  0  0  0
    1.2586    1.4011   -0.8444 H   0  0  0  0  0  0  0  0  0  0  0  0
    2.1528    0.2785    0.0624 H   0  0  0  0  0  0  0  0  0  0  0  0
    0.0000    0.0000    0.0000 C   0  0  0  0  0  0  0  0  0  0  0  0
    0.0083   -0.5815   -0.8161 H   0  0  0  0  0  0  0  0  0  0  0  0
    0.0077   -0.5819    0.8161 H   0  0  0  0  0  0  0  0  0  0  0  0
   -1.2395    0.8224    0.0000 N   0  0  0  0  0  4  0  0  0  0  0  0
   -0.9970    1.7890    0.0757 H   0  0  0  0  0  0  0  0  0  0  0  0
   -1.7395    0.6693   -0.8521 H   0  0  0  0  0  0  0  0  0  0  0  0
   -1.8128    0.5597    0.7760 H   0  0  0  0  0  0  0  0  0  0  0  0
   -1.2077   -1.6954    3.5806 C   0  0  0  0  0  0  0  0  0  0  0  0
   -1.3002   -0.7384    3.9534 H   0  0  0  0  0  0  0  0  0  0  0  0
   -0.2559   -1.7306    3.1849 H   0  0  0  0  0  0  0  0  0  0  0  0
   -1.2507   -2.3893    4.4201 H   0  0  0  0  0  0  0  0  0  0  0  0
   -2.4443   -2.0075    2.3029 S   0  0  0  0  0  0  0  0  0  0  0  0
   -3.7546   -0.8935    2.8086 C   0  0  0  0  0  0  0  0  0  0  0  0
   -3.9014   -0.9751    3.7948 H   0  0  0  0  0  0  0  0  0  0  0  0
   -3.4978    0.0478    2.5873 H   0  0  0  0  0  0  0  0  0  0  0  0
   -4.5993   -1.1294    2.3271 H   0  0  0  0  0  0  0  0  0  0  0  0
  1  5  1  0
  5  8  1  0
  1  2  1  0
  1  3  1  0
  1  4  1  0
  5  6  1  0
  5  7  1  0
  8  9  1  0
  8 10  1  0
  8 11  1  0
 12 16  1  0
 16 17  1  0
 12 13  1  0
 12 14  1  0
 12 15  1  0
 17 18  1  0
 17 19  1  0
 17 20  1  0
M  CHG  1   8   1
M  END
>  <PDB_ID>  (652) 
pdb1t06

>  <RESIDUE_NAME>  (652) 
LYS   MET

>  <FRAG_NAME>  (652) 
ETAM   MSM

>  <FRAG_ATOM_NUM>  (652) 
fragi: 11  fragj: 9

>  <atom.prop.CHAIN_ID>  (652) 
A A A A A A A A A A A Z Z Z Z Z Z Z Z Z

>  <atom.prop.IS_HEAVY_ATOM>  (652) 
1 0 0 0 1 0 0 1 0 0 0 1 0 0 0 1 1 0 0 0

>  <DIFUSE_FUNC_ATOM>  (652) 
n/a

>  <FINAL_SINGLE_POINT_ENERGY>  (652) 
0

>  <NONCOV_INTER_ENERGY_QM>  (652) 
0

>  <FF_Energy>  (652) 
-3.68

>  <QM_Energy>  (652) 
-9.23

>  <source>  (652) 
ETAM_MSM

>  <Index>  (652) 
3964

$$$$
ETAM-pdb1szn-A-LYS-130:MSM-pdb1szn-A-MET-258
     RDKit          3D

 20 18  0  0  0  0  0  0  0  0999 V2000
    1.2414    0.8430   -0.0000 C   0  0  0  0  0  0  0  0  0  0  0  0
    1.2184    1.4533    0.7964 H   0  0  0  0  0  0  0  0  0  0  0  0
    1.2552    1.3980   -0.8362 H   0  0  0  0  0  0  0  0  0  0  0  0
    2.1538    0.2481    0.0414 H   0  0  0  0  0  0  0  0  0  0  0  0
    0.0000    0.0000    0.0000 C   0  0  0  0  0  0  0  0  0  0  0  0
   -0.0088   -0.5863   -0.8160 H   0  0  0  0  0  0  0  0  0  0  0  0
   -0.0086   -0.5863    0.8160 H   0  0  0  0  0  0  0  0  0  0  0  0
   -1.2414    0.8373    0.0000 N   0  0  0  0  0  4  0  0  0  0  0  0
   -2.0347    0.2465   -0.1332 H   0  0  0  0  0  0  0  0  0  0  0  0
   -1.3168    1.3112    0.8749 H   0  0  0  0  0  0  0  0  0  0  0  0
   -1.1871    1.5033   -0.7422 H   0  0  0  0  0  0  0  0  0  0  0  0
   -2.7997    3.9049    3.0424 C   0  0  0  0  0  0  0  0  0  0  0  0
   -2.0437    4.5501    3.3571 H   0  0  0  0  0  0  0  0  0  0  0  0
   -2.5719    3.0167    3.5398 H   0  0  0  0  0  0  0  0  0  0  0  0
   -3.7329    4.2777    3.4646 H   0  0  0  0  0  0  0  0  0  0  0  0
   -2.7915    3.6938    1.2947 S   0  0  0  0  0  0  0  0  0  0  0  0
   -4.1531    2.5315    1.0852 C   0  0  0  0  0  0  0  0  0  0  0  0
   -4.7131    2.5264    1.9128 H   0  0  0  0  0  0  0  0  0  0  0  0
   -4.7094    2.8124    0.3039 H   0  0  0  0  0  0  0  0  0  0  0  0
   -3.7841    1.6171    0.9238 H   0  0  0  0  0  0  0  0  0  0  0  0
  1  5  1  0
  5  8  1  0
  1  2  1  0
  1  3  1  0
  1  4  1  0
  5  6  1  0
  5  7  1  0
  8  9  1  0
  8 10  1  0
  8 11  1  0
 12 16  1  0
 16 17  1  0
 12 13  1  0
 12 14  1  0
 12 15  1  0
 17 18  1  0
 17 19  1  0
 17 20  1  0
M  CHG  1   8   1
M  END
>  <PDB_ID>  (653) 
pdb1szn

>  <RESIDUE_NAME>  (653) 
LYS   MET

>  <FRAG_NAME>  (653) 
ETAM   MSM

>  <FRAG_ATOM_NUM>  (653) 
fragi: 11  fragj: 9

>  <atom.prop.CHAIN_ID>  (653) 
A A A A A A A A A A A Z Z Z Z Z Z Z Z Z

>  <atom.prop.IS_HEAVY_ATOM>  (653) 
1 0 0 0 1 0 0 1 0 0 0 1 0 0 0 1 1 0 0 0

>  <DIFUSE_FUNC_ATOM>  (653) 
n/a

>  <FINAL_SINGLE_POINT_ENERGY>  (653) 
0

>  <NONCOV_INTER_ENERGY_QM>  (653) 
0

>  <FF_Energy>  (653) 
-3.49

>  <QM_Energy>  (653) 
-10.0

>  <source>  (653) 
ETAM_MSM

>  <Index>  (653) 
3966

$$$$
ETAM-pdb1t2a-C-LYS-229:MSM-pdb1t2a-C-MET-366
     RDKit          3D

 20 18  0  0  0  0  0  0  0  0999 V2000
    1.3054    0.7765   -0.0000 C   0  0  0  0  0  0  0  0  0  0  0  0
    2.0558    0.1286    0.0601 H   0  0  0  0  0  0  0  0  0  0  0  0
    1.3060    1.3873    0.7827 H   0  0  0  0  0  0  0  0  0  0  0  0
    1.4033    1.3593   -0.9159 H   0  0  0  0  0  0  0  0  0  0  0  0
    0.0000    0.0000    0.0000 C   0  0  0  0  0  0  0  0  0  0  0  0
   -0.0411   -0.6020   -0.8157 H   0  0  0  0  0  0  0  0  0  0  0  0
   -0.0415   -0.6024    0.8165 H   0  0  0  0  0  0  0  0  0  0  0  0
   -1.3054    0.8542   -0.0000 N   0  0  0  0  0  4  0  0  0  0  0  0
   -1.0704    1.7537    0.3350 H   0  0  0  0  0  0  0  0  0  0  0  0
   -1.6352    0.8898   -0.9305 H   0  0  0  0  0  0  0  0  0  0  0  0
   -1.9528    0.4047    0.5958 H   0  0  0  0  0  0  0  0  0  0  0  0
   -0.1644    0.3763   -4.6604 C   0  0  0  0  0  0  0  0  0  0  0  0
    0.0779   -0.1969   -5.4709 H   0  0  0  0  0  0  0  0  0  0  0  0
    0.7089    0.8025   -4.3446 H   0  0  0  0  0  0  0  0  0  0  0  0
   -0.8373    1.1692   -4.9871 H   0  0  0  0  0  0  0  0  0  0  0  0
   -0.8935   -0.6347   -3.3550 S   0  0  0  0  0  0  0  0  0  0  0  0
   -1.9221   -1.7168   -4.2553 C   0  0  0  0  0  0  0  0  0  0  0  0
   -1.8661   -1.5260   -5.2449 H   0  0  0  0  0  0  0  0  0  0  0  0
   -1.6510   -2.6772   -4.1064 H   0  0  0  0  0  0  0  0  0  0  0  0
   -2.8854   -1.6169   -3.9713 H   0  0  0  0  0  0  0  0  0  0  0  0
  1  5  1  0
  5  8  1  0
  1  2  1  0
  1  3  1  0
  1  4  1  0
  5  6  1  0
  5  7  1  0
  8  9  1  0
  8 10  1  0
  8 11  1  0
 12 16  1  0
 16 17  1  0
 12 13  1  0
 12 14  1  0
 12 15  1  0
 17 18  1  0
 17 19  1  0
 17 20  1  0
M  CHG  1   8   1
M  END
>  <PDB_ID>  (654) 
pdb1t2a

>  <RESIDUE_NAME>  (654) 
LYS   MET

>  <FRAG_NAME>  (654) 
ETAM   MSM

>  <FRAG_ATOM_NUM>  (654) 
fragi: 11  fragj: 9

>  <atom.prop.CHAIN_ID>  (654) 
A A A A A A A A A A A Z Z Z Z Z Z Z Z Z

>  <atom.prop.IS_HEAVY_ATOM>  (654) 
1 0 0 0 1 0 0 1 0 0 0 1 0 0 0 1 1 0 0 0

>  <DIFUSE_FUNC_ATOM>  (654) 
n/a

>  <FINAL_SINGLE_POINT_ENERGY>  (654) 
0

>  <NONCOV_INTER_ENERGY_QM>  (654) 
0

>  <FF_Energy>  (654) 
-4.67

>  <QM_Energy>  (654) 
-13.29

>  <source>  (654) 
ETAM_MSM

>  <Index>  (654) 
3981

$$$$
ETAM-pdb1t2a-D-LYS-229:MSM-pdb1t2a-D-MET-366
     RDKit          3D

 20 18  0  0  0  0  0  0  0  0999 V2000
    1.2018    0.9010    0.0000 C   0  0  0  0  0  0  0  0  0  0  0  0
    1.1274    1.5603   -0.7349 H   0  0  0  0  0  0  0  0  0  0  0  0
    2.0266    0.3606   -0.0892 H   0  0  0  0  0  0  0  0  0  0  0  0
    1.2730    1.4581    0.9342 H   0  0  0  0  0  0  0  0  0  0  0  0
    0.0000    0.0000    0.0000 C   0  0  0  0  0  0  0  0  0  0  0  0
   -0.0171   -0.5401   -0.8158 H   0  0  0  0  0  0  0  0  0  0  0  0
   -0.0169   -0.5398    0.8160 H   0  0  0  0  0  0  0  0  0  0  0  0
   -1.2018    0.9166    0.0000 N   0  0  0  0  0  4  0  0  0  0  0  0
   -1.7071    0.7812    0.8470 H   0  0  0  0  0  0  0  0  0  0  0  0
   -0.8857    1.8585   -0.0655 H   0  0  0  0  0  0  0  0  0  0  0  0
   -1.7761    0.6914   -0.7821 H   0  0  0  0  0  0  0  0  0  0  0  0
   -1.8760    1.9832    3.9587 C   0  0  0  0  0  0  0  0  0  0  0  0
   -2.6906    2.5408    4.2409 H   0  0  0  0  0  0  0  0  0  0  0  0
   -1.2029    2.6603    3.5791 H   0  0  0  0  0  0  0  0  0  0  0  0
   -1.4411    1.5553    4.8620 H   0  0  0  0  0  0  0  0  0  0  0  0
   -2.3272    0.7516    2.7222 S   0  0  0  0  0  0  0  0  0  0  0  0
   -4.0131    0.7388    2.9919 C   0  0  0  0  0  0  0  0  0  0  0  0
   -4.3154    1.5459    3.5291 H   0  0  0  0  0  0  0  0  0  0  0  0
   -4.5348    0.7490    2.1206 H   0  0  0  0  0  0  0  0  0  0  0  0
   -4.3069   -0.0870    3.5057 H   0  0  0  0  0  0  0  0  0  0  0  0
  1  5  1  0
  5  8  1  0
  1  2  1  0
  1  3  1  0
  1  4  1  0
  5  6  1  0
  5  7  1  0
  8  9  1  0
  8 10  1  0
  8 11  1  0
 12 16  1  0
 16 17  1  0
 12 13  1  0
 12 14  1  0
 12 15  1  0
 17 18  1  0
 17 19  1  0
 17 20  1  0
M  CHG  1   8   1
M  END
>  <PDB_ID>  (655) 
pdb1t2a

>  <RESIDUE_NAME>  (655) 
LYS   MET

>  <FRAG_NAME>  (655) 
ETAM   MSM

>  <FRAG_ATOM_NUM>  (655) 
fragi: 11  fragj: 9

>  <atom.prop.CHAIN_ID>  (655) 
A A A A A A A A A A A Z Z Z Z Z Z Z Z Z

>  <atom.prop.IS_HEAVY_ATOM>  (655) 
1 0 0 0 1 0 0 1 0 0 0 1 0 0 0 1 1 0 0 0

>  <DIFUSE_FUNC_ATOM>  (655) 
n/a

>  <FINAL_SINGLE_POINT_ENERGY>  (655) 
0

>  <NONCOV_INTER_ENERGY_QM>  (655) 
0

>  <FF_Energy>  (655) 
-3.25

>  <QM_Energy>  (655) 
-13.97

>  <source>  (655) 
ETAM_MSM

>  <Index>  (655) 
3982

$$$$
ETAM-pdb1t33-A-LYS-104:MSM-pdb1t33-A-MET-108
     RDKit          3D

 20 18  0  0  0  0  0  0  0  0999 V2000
    1.2658    0.8592    0.0000 C   0  0  0  0  0  0  0  0  0  0  0  0
    1.2819    1.3879    0.8280 H   0  0  0  0  0  0  0  0  0  0  0  0
    1.2579    1.4228   -0.8049 H   0  0  0  0  0  0  0  0  0  0  0  0
    2.1324    0.1986   -0.0264 H   0  0  0  0  0  0  0  0  0  0  0  0
    0.0000    0.0000    0.0000 C   0  0  0  0  0  0  0  0  0  0  0  0
    0.0212   -0.6002   -0.8162 H   0  0  0  0  0  0  0  0  0  0  0  0
    0.0210   -0.6011    0.8161 H   0  0  0  0  0  0  0  0  0  0  0  0
   -1.2658    0.7769   -0.0000 N   0  0  0  0  0  4  0  0  0  0  0  0
   -1.0782    1.7197   -0.2757 H   0  0  0  0  0  0  0  0  0  0  0  0
   -1.9103    0.3637   -0.6434 H   0  0  0  0  0  0  0  0  0  0  0  0
   -1.6611    0.7704    0.9186 H   0  0  0  0  0  0  0  0  0  0  0  0
    1.3230   -3.4468   -4.0087 C   0  0  0  0  0  0  0  0  0  0  0  0
    2.1912   -2.9374   -4.0428 H   0  0  0  0  0  0  0  0  0  0  0  0
    1.1424   -3.8269   -4.9226 H   0  0  0  0  0  0  0  0  0  0  0  0
    1.3917   -4.2512   -3.2765 H   0  0  0  0  0  0  0  0  0  0  0  0
   -0.0578   -2.2757   -3.5471 S   0  0  0  0  0  0  0  0  0  0  0  0
    0.8622   -0.8494   -3.1690 C   0  0  0  0  0  0  0  0  0  0  0  0
    0.6477   -0.5156   -2.2405 H   0  0  0  0  0  0  0  0  0  0  0  0
    1.8537   -1.0374   -3.2099 H   0  0  0  0  0  0  0  0  0  0  0  0
    0.6601   -0.1051   -3.8209 H   0  0  0  0  0  0  0  0  0  0  0  0
  1  5  1  0
  5  8  1  0
  1  2  1  0
  1  3  1  0
  1  4  1  0
  5  6  1  0
  5  7  1  0
  8  9  1  0
  8 10  1  0
  8 11  1  0
 12 16  1  0
 16 17  1  0
 12 13  1  0
 12 14  1  0
 12 15  1  0
 17 18  1  0
 17 19  1  0
 17 20  1  0
M  CHG  1   8   1
M  END
>  <PDB_ID>  (656) 
pdb1t33

>  <RESIDUE_NAME>  (656) 
LYS   MET

>  <FRAG_NAME>  (656) 
ETAM   MSM

>  <FRAG_ATOM_NUM>  (656) 
fragi: 11  fragj: 9

>  <atom.prop.CHAIN_ID>  (656) 
A A A A A A A A A A A Z Z Z Z Z Z Z Z Z

>  <atom.prop.IS_HEAVY_ATOM>  (656) 
1 0 0 0 1 0 0 1 0 0 0 1 0 0 0 1 1 0 0 0

>  <DIFUSE_FUNC_ATOM>  (656) 
n/a

>  <FINAL_SINGLE_POINT_ENERGY>  (656) 
0

>  <NONCOV_INTER_ENERGY_QM>  (656) 
0

>  <FF_Energy>  (656) 
19.45

>  <QM_Energy>  (656) 
0.48

>  <source>  (656) 
ETAM_MSM

>  <Index>  (656) 
3984

$$$$
ETAM-pdb1t3l-A-LYS-124:MSM-pdb1t3l-A-MET-128
     RDKit          3D

 20 18  0  0  0  0  0  0  0  0999 V2000
    1.2293    0.9376    0.0000 C   0  0  0  0  0  0  0  0  0  0  0  0
    1.3610    1.2664   -0.9282 H   0  0  0  0  0  0  0  0  0  0  0  0
    2.0150    0.4082    0.2973 H   0  0  0  0  0  0  0  0  0  0  0  0
    1.0862    1.7857    0.6696 H   0  0  0  0  0  0  0  0  0  0  0  0
    0.0000    0.0000    0.0000 C   0  0  0  0  0  0  0  0  0  0  0  0
    0.0364   -0.5595   -0.8158 H   0  0  0  0  0  0  0  0  0  0  0  0
    0.0364   -0.5600    0.8164 H   0  0  0  0  0  0  0  0  0  0  0  0
   -1.2293    0.8197   -0.0000 N   0  0  0  0  0  4  0  0  0  0  0  0
   -1.9491    0.3473   -0.5115 H   0  0  0  0  0  0  0  0  0  0  0  0
   -1.5355    0.9677    0.9414 H   0  0  0  0  0  0  0  0  0  0  0  0
   -1.0441    1.7047   -0.4298 H   0  0  0  0  0  0  0  0  0  0  0  0
   -1.2887    0.4036    4.2302 C   0  0  0  0  0  0  0  0  0  0  0  0
   -2.2393    0.0742    4.1017 H   0  0  0  0  0  0  0  0  0  0  0  0
   -1.2215    1.3085    3.7772 H   0  0  0  0  0  0  0  0  0  0  0  0
   -1.1193    0.5432    5.2978 H   0  0  0  0  0  0  0  0  0  0  0  0
   -0.0984   -0.7577    3.5449 S   0  0  0  0  0  0  0  0  0  0  0  0
   -0.4446   -2.2404    4.5520 C   0  0  0  0  0  0  0  0  0  0  0  0
   -0.0633   -3.0357    4.0903 H   0  0  0  0  0  0  0  0  0  0  0  0
   -0.0206   -2.1246    5.4452 H   0  0  0  0  0  0  0  0  0  0  0  0
   -1.4305   -2.3372    4.6477 H   0  0  0  0  0  0  0  0  0  0  0  0
  1  5  1  0
  5  8  1  0
  1  2  1  0
  1  3  1  0
  1  4  1  0
  5  6  1  0
  5  7  1  0
  8  9  1  0
  8 10  1  0
  8 11  1  0
 12 16  1  0
 16 17  1  0
 12 13  1  0
 12 14  1  0
 12 15  1  0
 17 18  1  0
 17 19  1  0
 17 20  1  0
M  CHG  1   8   1
M  END
>  <PDB_ID>  (657) 
pdb1t3l

>  <RESIDUE_NAME>  (657) 
LYS   MET

>  <FRAG_NAME>  (657) 
ETAM   MSM

>  <FRAG_ATOM_NUM>  (657) 
fragi: 11  fragj: 9

>  <atom.prop.CHAIN_ID>  (657) 
A A A A A A A A A A A Z Z Z Z Z Z Z Z Z

>  <atom.prop.IS_HEAVY_ATOM>  (657) 
1 0 0 0 1 0 0 1 0 0 0 1 0 0 0 1 1 0 0 0

>  <DIFUSE_FUNC_ATOM>  (657) 
n/a

>  <FINAL_SINGLE_POINT_ENERGY>  (657) 
0

>  <NONCOV_INTER_ENERGY_QM>  (657) 
0

>  <FF_Energy>  (657) 
-3.56

>  <QM_Energy>  (657) 
-8.92

>  <source>  (657) 
ETAM_MSM

>  <Index>  (657) 
3987

$$$$
ETAM-pdb1t3t-A-LYS-329:MSM-pdb1t3t-A-MET-663
     RDKit          3D

 20 18  0  0  0  0  0  0  0  0999 V2000
    1.2293    0.8731    0.0000 C   0  0  0  0  0  0  0  0  0  0  0  0
    1.0853    1.6280   -0.6296 H   0  0  0  0  0  0  0  0  0  0  0  0
    2.0096    0.3272   -0.2803 H   0  0  0  0  0  0  0  0  0  0  0  0
    1.4115    1.2710    0.9982 H   0  0  0  0  0  0  0  0  0  0  0  0
    0.0000    0.0000    0.0000 C   0  0  0  0  0  0  0  0  0  0  0  0
    0.0074   -0.5793   -0.8158 H   0  0  0  0  0  0  0  0  0  0  0  0
    0.0068   -0.5795    0.8163 H   0  0  0  0  0  0  0  0  0  0  0  0
   -1.2293    0.8280   -0.0000 N   0  0  0  0  0  4  0  0  0  0  0  0
   -1.6650    0.7800   -0.8993 H   0  0  0  0  0  0  0  0  0  0  0  0
   -1.8625    0.4858    0.6949 H   0  0  0  0  0  0  0  0  0  0  0  0
   -0.9929    1.7784    0.2049 H   0  0  0  0  0  0  0  0  0  0  0  0
   -3.4448   -1.9864    2.5946 C   0  0  0  0  0  0  0  0  0  0  0  0
   -4.1213   -2.6458    2.1916 H   0  0  0  0  0  0  0  0  0  0  0  0
   -3.7614   -1.8297    3.5588 H   0  0  0  0  0  0  0  0  0  0  0  0
   -2.4715   -2.4759    2.6297 H   0  0  0  0  0  0  0  0  0  0  0  0
   -3.4278   -0.4393    1.6664 S   0  0  0  0  0  0  0  0  0  0  0  0
   -3.4784    0.7040    3.0206 C   0  0  0  0  0  0  0  0  0  0  0  0
   -4.2914    1.2893    2.9473 H   0  0  0  0  0  0  0  0  0  0  0  0
   -3.5149    0.2053    3.8917 H   0  0  0  0  0  0  0  0  0  0  0  0
   -2.6594    1.2844    3.0128 H   0  0  0  0  0  0  0  0  0  0  0  0
  1  5  1  0
  5  8  1  0
  1  2  1  0
  1  3  1  0
  1  4  1  0
  5  6  1  0
  5  7  1  0
  8  9  1  0
  8 10  1  0
  8 11  1  0
 12 16  1  0
 16 17  1  0
 12 13  1  0
 12 14  1  0
 12 15  1  0
 17 18  1  0
 17 19  1  0
 17 20  1  0
M  CHG  1   8   1
M  END
>  <PDB_ID>  (658) 
pdb1t3t

>  <RESIDUE_NAME>  (658) 
LYS   MET

>  <FRAG_NAME>  (658) 
ETAM   MSM

>  <FRAG_ATOM_NUM>  (658) 
fragi: 11  fragj: 9

>  <atom.prop.CHAIN_ID>  (658) 
A A A A A A A A A A A Z Z Z Z Z Z Z Z Z

>  <atom.prop.IS_HEAVY_ATOM>  (658) 
1 0 0 0 1 0 0 1 0 0 0 1 0 0 0 1 1 0 0 0

>  <DIFUSE_FUNC_ATOM>  (658) 
n/a

>  <FINAL_SINGLE_POINT_ENERGY>  (658) 
0

>  <NONCOV_INTER_ENERGY_QM>  (658) 
0

>  <FF_Energy>  (658) 
-4.22

>  <QM_Energy>  (658) 
-14.99

>  <source>  (658) 
ETAM_MSM

>  <Index>  (658) 
3991

$$$$
ETAM-pdb1t2a-B-LYS-229:MSM-pdb1t2a-B-MET-366
     RDKit          3D

 20 18  0  0  0  0  0  0  0  0999 V2000
    1.2644    0.8643    0.0000 C   0  0  0  0  0  0  0  0  0  0  0  0
    1.8626    0.5344    0.7192 H   0  0  0  0  0  0  0  0  0  0  0  0
    0.9941    1.8031    0.1670 H   0  0  0  0  0  0  0  0  0  0  0  0
    1.7733    0.7930   -0.9613 H   0  0  0  0  0  0  0  0  0  0  0  0
    0.0000    0.0000    0.0000 C   0  0  0  0  0  0  0  0  0  0  0  0
    0.0088   -0.5861   -0.8160 H   0  0  0  0  0  0  0  0  0  0  0  0
    0.0081   -0.5863    0.8161 H   0  0  0  0  0  0  0  0  0  0  0  0
   -1.2644    0.8151   -0.0000 N   0  0  0  0  0  4  0  0  0  0  0  0
   -1.4681    1.0956   -0.9344 H   0  0  0  0  0  0  0  0  0  0  0  0
   -2.0090    0.2577    0.3591 H   0  0  0  0  0  0  0  0  0  0  0  0
   -1.1319    1.6180    0.5759 H   0  0  0  0  0  0  0  0  0  0  0  0
    0.4090   -0.2574   -4.9796 C   0  0  0  0  0  0  0  0  0  0  0  0
    0.2745   -1.1598   -5.4441 H   0  0  0  0  0  0  0  0  0  0  0  0
    1.3259   -0.3103   -4.5278 H   0  0  0  0  0  0  0  0  0  0  0  0
    0.4588    0.5111   -5.7509 H   0  0  0  0  0  0  0  0  0  0  0  0
   -0.8931    0.0508   -3.7700 S   0  0  0  0  0  0  0  0  0  0  0  0
   -2.2473   -0.7313   -4.5712 C   0  0  0  0  0  0  0  0  0  0  0  0
   -3.1041   -0.5490   -4.0753 H   0  0  0  0  0  0  0  0  0  0  0  0
   -2.3457   -0.3883   -5.5131 H   0  0  0  0  0  0  0  0  0  0  0  0
   -2.1075   -1.7277   -4.6088 H   0  0  0  0  0  0  0  0  0  0  0  0
  1  5  1  0
  5  8  1  0
  1  2  1  0
  1  3  1  0
  1  4  1  0
  5  6  1  0
  5  7  1  0
  8  9  1  0
  8 10  1  0
  8 11  1  0
 12 16  1  0
 16 17  1  0
 12 13  1  0
 12 14  1  0
 12 15  1  0
 17 18  1  0
 17 19  1  0
 17 20  1  0
M  CHG  1   8   1
M  END
>  <PDB_ID>  (659) 
pdb1t2a

>  <RESIDUE_NAME>  (659) 
LYS   MET

>  <FRAG_NAME>  (659) 
ETAM   MSM

>  <FRAG_ATOM_NUM>  (659) 
fragi: 11  fragj: 9

>  <atom.prop.CHAIN_ID>  (659) 
A A A A A A A A A A A Z Z Z Z Z Z Z Z Z

>  <atom.prop.IS_HEAVY_ATOM>  (659) 
1 0 0 0 1 0 0 1 0 0 0 1 0 0 0 1 1 0 0 0

>  <DIFUSE_FUNC_ATOM>  (659) 
n/a

>  <FINAL_SINGLE_POINT_ENERGY>  (659) 
0

>  <NONCOV_INTER_ENERGY_QM>  (659) 
0

>  <FF_Energy>  (659) 
-5.27

>  <QM_Energy>  (659) 
-11.53

>  <source>  (659) 
ETAM_MSM

>  <Index>  (659) 
3996

$$$$
ETAM-pdb2z37-C-LYS-158:MSM-pdb2z37-C-MET-371
     RDKit          3D

 20 18  0  0  0  0  0  0  0  0999 V2000
    1.2520    0.8718    0.0000 C   0  0  0  0  0  0  0  0  0  0  0  0
    1.1216    1.6106   -0.6549 H   0  0  0  0  0  0  0  0  0  0  0  0
    2.0281    0.3085   -0.2685 H   0  0  0  0  0  0  0  0  0  0  0  0
    1.4502    1.3020    0.9817 H   0  0  0  0  0  0  0  0  0  0  0  0
    0.0000    0.0000    0.0000 C   0  0  0  0  0  0  0  0  0  0  0  0
    0.0088   -0.5820   -0.8159 H   0  0  0  0  0  0  0  0  0  0  0  0
    0.0093   -0.5825    0.8160 H   0  0  0  0  0  0  0  0  0  0  0  0
   -1.2520    0.8202   -0.0000 N   0  0  0  0  0  4  0  0  0  0  0  0
   -2.0302    0.2296   -0.2062 H   0  0  0  0  0  0  0  0  0  0  0  0
   -1.3713    1.2359    0.8998 H   0  0  0  0  0  0  0  0  0  0  0  0
   -1.1764    1.5334   -0.6938 H   0  0  0  0  0  0  0  0  0  0  0  0
   -4.2075   -0.5456    1.9275 C   0  0  0  0  0  0  0  0  0  0  0  0
   -3.9956   -0.0402    1.0483 H   0  0  0  0  0  0  0  0  0  0  0  0
   -5.1920   -0.2948    2.1300 H   0  0  0  0  0  0  0  0  0  0  0  0
   -4.1698   -1.6144    1.7168 H   0  0  0  0  0  0  0  0  0  0  0  0
   -3.1205    0.0137    3.2612 S   0  0  0  0  0  0  0  0  0  0  0  0
   -2.8168   -1.5179    4.1227 C   0  0  0  0  0  0  0  0  0  0  0  0
   -3.6639   -2.0518    4.1759 H   0  0  0  0  0  0  0  0  0  0  0  0
   -2.1227   -2.0511    3.6335 H   0  0  0  0  0  0  0  0  0  0  0  0
   -2.4899   -1.3265    5.0508 H   0  0  0  0  0  0  0  0  0  0  0  0
  1  5  1  0
  5  8  1  0
  1  2  1  0
  1  3  1  0
  1  4  1  0
  5  6  1  0
  5  7  1  0
  8  9  1  0
  8 10  1  0
  8 11  1  0
 12 16  1  0
 16 17  1  0
 12 13  1  0
 12 14  1  0
 12 15  1  0
 17 18  1  0
 17 19  1  0
 17 20  1  0
M  CHG  1   8   1
M  END
>  <PDB_ID>  (660) 
pdb2z37

>  <RESIDUE_NAME>  (660) 
LYS   MET

>  <FRAG_NAME>  (660) 
ETAM   MSM

>  <FRAG_ATOM_NUM>  (660) 
fragi: 11  fragj: 9

>  <atom.prop.CHAIN_ID>  (660) 
A A A A A A A A A A A Z Z Z Z Z Z Z Z Z

>  <atom.prop.IS_HEAVY_ATOM>  (660) 
1 0 0 0 1 0 0 1 0 0 0 1 0 0 0 1 1 0 0 0

>  <DIFUSE_FUNC_ATOM>  (660) 
n/a

>  <FINAL_SINGLE_POINT_ENERGY>  (660) 
0

>  <NONCOV_INTER_ENERGY_QM>  (660) 
0

>  <FF_Energy>  (660) 
-3.15

>  <QM_Energy>  (660) 
-8.9

>  <source>  (660) 
ETAM_MSM

>  <Index>  (660) 
4009

$$$$
ETAM-pdb1t9b-B-LYS-437:MSM-pdb1t9b-B-MET-286
     RDKit          3D

 20 18  0  0  0  0  0  0  0  0999 V2000
    1.2531    0.8715    0.0000 C   0  0  0  0  0  0  0  0  0  0  0  0
    2.0469    0.2821    0.1230 H   0  0  0  0  0  0  0  0  0  0  0  0
    1.1857    1.5186    0.7535 H   0  0  0  0  0  0  0  0  0  0  0  0
    1.3643    1.4235   -0.9332 H   0  0  0  0  0  0  0  0  0  0  0  0
    0.0000    0.0000    0.0000 C   0  0  0  0  0  0  0  0  0  0  0  0
    0.0162   -0.5879   -0.8159 H   0  0  0  0  0  0  0  0  0  0  0  0
    0.0163   -0.5876    0.8162 H   0  0  0  0  0  0  0  0  0  0  0  0
   -1.2531    0.8023    0.0000 N   0  0  0  0  0  4  0  0  0  0  0  0
   -2.0308    0.2028    0.1879 H   0  0  0  0  0  0  0  0  0  0  0  0
   -1.1953    1.5078    0.7064 H   0  0  0  0  0  0  0  0  0  0  0  0
   -1.3716    1.2331   -0.8939 H   0  0  0  0  0  0  0  0  0  0  0  0
   -2.9753   -1.5531    3.6717 C   0  0  0  0  0  0  0  0  0  0  0  0
   -3.9264   -1.5695    3.2889 H   0  0  0  0  0  0  0  0  0  0  0  0
   -2.8080   -0.5804    3.9480 H   0  0  0  0  0  0  0  0  0  0  0  0
   -2.9495   -2.1783    4.5643 H   0  0  0  0  0  0  0  0  0  0  0  0
   -1.7768   -2.0723    2.4177 S   0  0  0  0  0  0  0  0  0  0  0  0
   -2.6049   -3.4932    1.7407 C   0  0  0  0  0  0  0  0  0  0  0  0
   -3.3600   -3.1995    1.1490 H   0  0  0  0  0  0  0  0  0  0  0  0
   -1.9599   -4.0402    1.2001 H   0  0  0  0  0  0  0  0  0  0  0  0
   -2.9730   -4.0601    2.4820 H   0  0  0  0  0  0  0  0  0  0  0  0
  1  5  1  0
  5  8  1  0
  1  2  1  0
  1  3  1  0
  1  4  1  0
  5  6  1  0
  5  7  1  0
  8  9  1  0
  8 10  1  0
  8 11  1  0
 12 16  1  0
 16 17  1  0
 12 13  1  0
 12 14  1  0
 12 15  1  0
 17 18  1  0
 17 19  1  0
 17 20  1  0
M  CHG  1   8   1
M  END
>  <PDB_ID>  (661) 
pdb1t9b

>  <RESIDUE_NAME>  (661) 
LYS   MET

>  <FRAG_NAME>  (661) 
ETAM   MSM

>  <FRAG_ATOM_NUM>  (661) 
fragi: 11  fragj: 9

>  <atom.prop.CHAIN_ID>  (661) 
A A A A A A A A A A A Z Z Z Z Z Z Z Z Z

>  <atom.prop.IS_HEAVY_ATOM>  (661) 
1 0 0 0 1 0 0 1 0 0 0 1 0 0 0 1 1 0 0 0

>  <DIFUSE_FUNC_ATOM>  (661) 
n/a

>  <FINAL_SINGLE_POINT_ENERGY>  (661) 
0

>  <NONCOV_INTER_ENERGY_QM>  (661) 
0

>  <FF_Energy>  (661) 
-4.42

>  <QM_Energy>  (661) 
-11.59

>  <source>  (661) 
ETAM_MSM

>  <Index>  (661) 
4013

$$$$
ETAM-pdb1t7l-A-LYS-139:MSM-pdb1t7l-A-MET-43
     RDKit          3D

 20 18  0  0  0  0  0  0  0  0999 V2000
    1.2326    0.8717    0.0000 C   0  0  0  0  0  0  0  0  0  0  0  0
    1.2159    1.4523    0.8163 H   0  0  0  0  0  0  0  0  0  0  0  0
    1.2153    1.4521   -0.8173 H   0  0  0  0  0  0  0  0  0  0  0  0
    2.1573    0.2945   -0.0000 H   0  0  0  0  0  0  0  0  0  0  0  0
    0.0000    0.0000    0.0000 C   0  0  0  0  0  0  0  0  0  0  0  0
    0.0068   -0.5793   -0.8164 H   0  0  0  0  0  0  0  0  0  0  0  0
    0.0067   -0.5792    0.8165 H   0  0  0  0  0  0  0  0  0  0  0  0
   -1.2326    0.8289   -0.0000 N   0  0  0  0  0  4  0  0  0  0  0  0
   -1.0005    1.7703    0.2451 H   0  0  0  0  0  0  0  0  0  0  0  0
   -1.6444    0.8137   -0.9107 H   0  0  0  0  0  0  0  0  0  0  0  0
   -1.8813    0.4606    0.6662 H   0  0  0  0  0  0  0  0  0  0  0  0
   -1.8852    3.2259   -1.6952 C   0  0  0  0  0  0  0  0  0  0  0  0
   -2.6552    2.6559   -1.3177 H   0  0  0  0  0  0  0  0  0  0  0  0
   -1.6346    2.7752   -2.5872 H   0  0  0  0  0  0  0  0  0  0  0  0
   -2.2687    4.2236   -1.9086 H   0  0  0  0  0  0  0  0  0  0  0  0
   -0.4647    3.2051   -0.5558 S   0  0  0  0  0  0  0  0  0  0  0  0
    0.8566    3.7178   -1.6189 C   0  0  0  0  0  0  0  0  0  0  0  0
    1.5409    2.9863   -1.6973 H   0  0  0  0  0  0  0  0  0  0  0  0
    0.5015    3.9291   -2.5349 H   0  0  0  0  0  0  0  0  0  0  0  0
    1.3009    4.5375   -1.2467 H   0  0  0  0  0  0  0  0  0  0  0  0
  1  5  1  0
  5  8  1  0
  1  2  1  0
  1  3  1  0
  1  4  1  0
  5  6  1  0
  5  7  1  0
  8  9  1  0
  8 10  1  0
  8 11  1  0
 12 16  1  0
 16 17  1  0
 12 13  1  0
 12 14  1  0
 12 15  1  0
 17 18  1  0
 17 19  1  0
 17 20  1  0
M  CHG  1   8   1
M  END
>  <PDB_ID>  (662) 
pdb1t7l

>  <RESIDUE_NAME>  (662) 
LYS   MET

>  <FRAG_NAME>  (662) 
ETAM   MSM

>  <FRAG_ATOM_NUM>  (662) 
fragi: 11  fragj: 9

>  <atom.prop.CHAIN_ID>  (662) 
A A A A A A A A A A A Z Z Z Z Z Z Z Z Z

>  <atom.prop.IS_HEAVY_ATOM>  (662) 
1 0 0 0 1 0 0 1 0 0 0 1 0 0 0 1 1 0 0 0

>  <DIFUSE_FUNC_ATOM>  (662) 
n/a

>  <FINAL_SINGLE_POINT_ENERGY>  (662) 
0

>  <NONCOV_INTER_ENERGY_QM>  (662) 
0

>  <FF_Energy>  (662) 
43.66

>  <QM_Energy>  (662) 
12.29

>  <source>  (662) 
ETAM_MSM

>  <Index>  (662) 
4019

$$$$
ETAM-pdb1ta3-A-LYS-271:MSM-pdb1ta3-A-MET-29
     RDKit          3D

 20 18  0  0  0  0  0  0  0  0999 V2000
    1.2172    0.8960    0.0000 C   0  0  0  0  0  0  0  0  0  0  0  0
    1.1116    1.5815    0.7308 H   0  0  0  0  0  0  0  0  0  0  0  0
    1.2606    1.3786   -0.8834 H   0  0  0  0  0  0  0  0  0  0  0  0
    2.1596    0.3702    0.1533 H   0  0  0  0  0  0  0  0  0  0  0  0
    0.0000    0.0000    0.0000 C   0  0  0  0  0  0  0  0  0  0  0  0
   -0.0239   -0.5382   -0.8162 H   0  0  0  0  0  0  0  0  0  0  0  0
   -0.0234   -0.5382    0.8157 H   0  0  0  0  0  0  0  0  0  0  0  0
   -1.2172    0.9276    0.0000 N   0  0  0  0  0  4  0  0  0  0  0  0
   -1.9802    0.4393   -0.4074 H   0  0  0  0  0  0  0  0  0  0  0  0
   -1.4201    1.1734    0.9403 H   0  0  0  0  0  0  0  0  0  0  0  0
   -0.9931    1.7346   -0.5331 H   0  0  0  0  0  0  0  0  0  0  0  0
   -0.2084    3.0257   -4.4884 C   0  0  0  0  0  0  0  0  0  0  0  0
   -1.1316    3.4608   -4.4527 H   0  0  0  0  0  0  0  0  0  0  0  0
   -0.0308    2.8143   -5.4714 H   0  0  0  0  0  0  0  0  0  0  0  0
    0.5405    3.7290   -4.1242 H   0  0  0  0  0  0  0  0  0  0  0  0
   -0.1802    1.5336   -3.5114 S   0  0  0  0  0  0  0  0  0  0  0  0
   -1.7644    0.7683   -4.1736 C   0  0  0  0  0  0  0  0  0  0  0  0
   -1.5273    0.2681   -4.9908 H   0  0  0  0  0  0  0  0  0  0  0  0
   -2.1154    0.1714   -3.4701 H   0  0  0  0  0  0  0  0  0  0  0  0
   -2.3867    1.5096   -4.3673 H   0  0  0  0  0  0  0  0  0  0  0  0
  1  5  1  0
  5  8  1  0
  1  2  1  0
  1  3  1  0
  1  4  1  0
  5  6  1  0
  5  7  1  0
  8  9  1  0
  8 10  1  0
  8 11  1  0
 12 16  1  0
 16 17  1  0
 12 13  1  0
 12 14  1  0
 12 15  1  0
 17 18  1  0
 17 19  1  0
 17 20  1  0
M  CHG  1   8   1
M  END
>  <PDB_ID>  (663) 
pdb1ta3

>  <RESIDUE_NAME>  (663) 
LYS   MET

>  <FRAG_NAME>  (663) 
ETAM   MSM

>  <FRAG_ATOM_NUM>  (663) 
fragi: 11  fragj: 9

>  <atom.prop.CHAIN_ID>  (663) 
A A A A A A A A A A A Z Z Z Z Z Z Z Z Z

>  <atom.prop.IS_HEAVY_ATOM>  (663) 
1 0 0 0 1 0 0 1 0 0 0 1 0 0 0 1 1 0 0 0

>  <DIFUSE_FUNC_ATOM>  (663) 
n/a

>  <FINAL_SINGLE_POINT_ENERGY>  (663) 
0

>  <NONCOV_INTER_ENERGY_QM>  (663) 
0

>  <FF_Energy>  (663) 
-4.76

>  <QM_Energy>  (663) 
-11.97

>  <source>  (663) 
ETAM_MSM

>  <Index>  (663) 
4020

$$$$
ETAM-pdb2z5f-A-LYS-107:MSM-pdb2z5f-A-MET-81
     RDKit          3D

 20 18  0  0  0  0  0  0  0  0999 V2000
    1.3029    0.8445    0.0000 C   0  0  0  0  0  0  0  0  0  0  0  0
    1.3651    1.3224    0.8676 H   0  0  0  0  0  0  0  0  0  0  0  0
    1.2568    1.4889   -0.7537 H   0  0  0  0  0  0  0  0  0  0  0  0
    2.1990    0.2359   -0.1215 H   0  0  0  0  0  0  0  0  0  0  0  0
    0.0000    0.0000    0.0000 C   0  0  0  0  0  0  0  0  0  0  0  0
   -0.0003   -0.5923   -0.8166 H   0  0  0  0  0  0  0  0  0  0  0  0
   -0.0010   -0.5925    0.8158 H   0  0  0  0  0  0  0  0  0  0  0  0
   -1.3029    0.8170   -0.0000 N   0  0  0  0  0  4  0  0  0  0  0  0
   -1.8840    0.4677   -0.7237 H   0  0  0  0  0  0  0  0  0  0  0  0
   -1.7348    0.7054    0.8853 H   0  0  0  0  0  0  0  0  0  0  0  0
   -1.0695    1.7671   -0.1624 H   0  0  0  0  0  0  0  0  0  0  0  0
    0.6657   -1.2251   -3.5426 C   0  0  0  0  0  0  0  0  0  0  0  0
    1.0216   -1.7768   -4.3541 H   0  0  0  0  0  0  0  0  0  0  0  0
    1.2841   -1.5379   -2.7606 H   0  0  0  0  0  0  0  0  0  0  0  0
    0.8777   -0.1737   -3.7364 H   0  0  0  0  0  0  0  0  0  0  0  0
   -1.0740   -1.6839   -3.1869 S   0  0  0  0  0  0  0  0  0  0  0  0
   -2.0518   -0.6110   -4.2079 C   0  0  0  0  0  0  0  0  0  0  0  0
   -1.4961    0.1632   -4.5244 H   0  0  0  0  0  0  0  0  0  0  0  0
   -2.3932   -1.1136   -5.0067 H   0  0  0  0  0  0  0  0  0  0  0  0
   -2.8336   -0.2585   -3.6864 H   0  0  0  0  0  0  0  0  0  0  0  0
  1  5  1  0
  5  8  1  0
  1  2  1  0
  1  3  1  0
  1  4  1  0
  5  6  1  0
  5  7  1  0
  8  9  1  0
  8 10  1  0
  8 11  1  0
 12 16  1  0
 16 17  1  0
 12 13  1  0
 12 14  1  0
 12 15  1  0
 17 18  1  0
 17 19  1  0
 17 20  1  0
M  CHG  1   8   1
M  END
>  <PDB_ID>  (664) 
pdb2z5f

>  <RESIDUE_NAME>  (664) 
LYS   MET

>  <FRAG_NAME>  (664) 
ETAM   MSM

>  <FRAG_ATOM_NUM>  (664) 
fragi: 11  fragj: 9

>  <atom.prop.CHAIN_ID>  (664) 
A A A A A A A A A A A Z Z Z Z Z Z Z Z Z

>  <atom.prop.IS_HEAVY_ATOM>  (664) 
1 0 0 0 1 0 0 1 0 0 0 1 0 0 0 1 1 0 0 0

>  <DIFUSE_FUNC_ATOM>  (664) 
n/a

>  <FINAL_SINGLE_POINT_ENERGY>  (664) 
0

>  <NONCOV_INTER_ENERGY_QM>  (664) 
0

>  <FF_Energy>  (664) 
-3.53

>  <QM_Energy>  (664) 
-9.19

>  <source>  (664) 
ETAM_MSM

>  <Index>  (664) 
4022

$$$$
ETAM-pdb1tb6-H-LYS-36:MSM-pdb1tb6-H-MET-84
     RDKit          3D

 20 18  0  0  0  0  0  0  0  0999 V2000
    1.2360    0.8723    0.0000 C   0  0  0  0  0  0  0  0  0  0  0  0
    1.1513    1.5458    0.7218 H   0  0  0  0  0  0  0  0  0  0  0  0
    1.3178    1.3096   -0.8859 H   0  0  0  0  0  0  0  0  0  0  0  0
    2.1246    0.2679    0.1822 H   0  0  0  0  0  0  0  0  0  0  0  0
    0.0000    0.0000    0.0000 C   0  0  0  0  0  0  0  0  0  0  0  0
    0.0101   -0.5815   -0.8163 H   0  0  0  0  0  0  0  0  0  0  0  0
    0.0092   -0.5811    0.8165 H   0  0  0  0  0  0  0  0  0  0  0  0
   -1.2360    0.8211   -0.0000 N   0  0  0  0  0  4  0  0  0  0  0  0
   -1.0791    1.6610   -0.5204 H   0  0  0  0  0  0  0  0  0  0  0  0
   -1.9808    0.3025   -0.4205 H   0  0  0  0  0  0  0  0  0  0  0  0
   -1.4819    1.0538    0.9414 H   0  0  0  0  0  0  0  0  0  0  0  0
   -3.1762   -3.2725   -1.4060 C   0  0  0  0  0  0  0  0  0  0  0  0
   -3.3333   -4.1268   -1.9389 H   0  0  0  0  0  0  0  0  0  0  0  0
   -3.6561   -2.5269   -1.9092 H   0  0  0  0  0  0  0  0  0  0  0  0
   -3.6419   -3.3856   -0.4271 H   0  0  0  0  0  0  0  0  0  0  0  0
   -1.4198   -2.9211   -1.2569 S   0  0  0  0  0  0  0  0  0  0  0  0
   -1.0379   -2.3038   -2.9088 C   0  0  0  0  0  0  0  0  0  0  0  0
   -0.8639   -1.3218   -2.8608 H   0  0  0  0  0  0  0  0  0  0  0  0
   -0.2272   -2.7726   -3.2564 H   0  0  0  0  0  0  0  0  0  0  0  0
   -1.8139   -2.4796   -3.5135 H   0  0  0  0  0  0  0  0  0  0  0  0
  1  5  1  0
  5  8  1  0
  1  2  1  0
  1  3  1  0
  1  4  1  0
  5  6  1  0
  5  7  1  0
  8  9  1  0
  8 10  1  0
  8 11  1  0
 12 16  1  0
 16 17  1  0
 12 13  1  0
 12 14  1  0
 12 15  1  0
 17 18  1  0
 17 19  1  0
 17 20  1  0
M  CHG  1   8   1
M  END
>  <PDB_ID>  (665) 
pdb1tb6

>  <RESIDUE_NAME>  (665) 
LYS   MET

>  <FRAG_NAME>  (665) 
ETAM   MSM

>  <FRAG_ATOM_NUM>  (665) 
fragi: 11  fragj: 9

>  <atom.prop.CHAIN_ID>  (665) 
A A A A A A A A A A A Z Z Z Z Z Z Z Z Z

>  <atom.prop.IS_HEAVY_ATOM>  (665) 
1 0 0 0 1 0 0 1 0 0 0 1 0 0 0 1 1 0 0 0

>  <DIFUSE_FUNC_ATOM>  (665) 
n/a

>  <FINAL_SINGLE_POINT_ENERGY>  (665) 
0

>  <NONCOV_INTER_ENERGY_QM>  (665) 
0

>  <FF_Energy>  (665) 
-3.18

>  <QM_Energy>  (665) 
-8.32

>  <source>  (665) 
ETAM_MSM

>  <Index>  (665) 
4024

$$$$
ETAM-pdb1t9b-A-LYS-437:MSM-pdb1t9b-A-MET-286
     RDKit          3D

 20 18  0  0  0  0  0  0  0  0999 V2000
    1.2472    0.8689   -0.0000 C   0  0  0  0  0  0  0  0  0  0  0  0
    2.0456    0.2783    0.0461 H   0  0  0  0  0  0  0  0  0  0  0  0
    1.2136    1.4721    0.7897 H   0  0  0  0  0  0  0  0  0  0  0  0
    1.3072    1.4737   -0.9049 H   0  0  0  0  0  0  0  0  0  0  0  0
    0.0000    0.0000    0.0000 C   0  0  0  0  0  0  0  0  0  0  0  0
    0.0114   -0.5853   -0.8167 H   0  0  0  0  0  0  0  0  0  0  0  0
    0.0112   -0.5854    0.8159 H   0  0  0  0  0  0  0  0  0  0  0  0
   -1.2472    0.8128   -0.0000 N   0  0  0  0  0  4  0  0  0  0  0  0
   -1.0545    1.7154   -0.3840 H   0  0  0  0  0  0  0  0  0  0  0  0
   -1.9419    0.3546   -0.5537 H   0  0  0  0  0  0  0  0  0  0  0  0
   -1.5778    0.9118    0.9383 H   0  0  0  0  0  0  0  0  0  0  0  0
   -2.6088   -3.3706    3.1765 C   0  0  0  0  0  0  0  0  0  0  0  0
   -3.6248   -3.3021    3.0578 H   0  0  0  0  0  0  0  0  0  0  0  0
   -2.3014   -2.4361    3.4651 H   0  0  0  0  0  0  0  0  0  0  0  0
   -2.3985   -4.0719    3.9840 H   0  0  0  0  0  0  0  0  0  0  0  0
   -1.8192   -3.8451    1.6196 S   0  0  0  0  0  0  0  0  0  0  0  0
   -0.3304   -2.8760    1.6800 C   0  0  0  0  0  0  0  0  0  0  0  0
   -0.3287   -2.2038    0.9349 H   0  0  0  0  0  0  0  0  0  0  0  0
   -0.2729   -2.3912    2.5568 H   0  0  0  0  0  0  0  0  0  0  0  0
    0.4709   -3.4718    1.5839 H   0  0  0  0  0  0  0  0  0  0  0  0
  1  5  1  0
  5  8  1  0
  1  2  1  0
  1  3  1  0
  1  4  1  0
  5  6  1  0
  5  7  1  0
  8  9  1  0
  8 10  1  0
  8 11  1  0
 12 16  1  0
 16 17  1  0
 12 13  1  0
 12 14  1  0
 12 15  1  0
 17 18  1  0
 17 19  1  0
 17 20  1  0
M  CHG  1   8   1
M  END
>  <PDB_ID>  (666) 
pdb1t9b

>  <RESIDUE_NAME>  (666) 
LYS   MET

>  <FRAG_NAME>  (666) 
ETAM   MSM

>  <FRAG_ATOM_NUM>  (666) 
fragi: 11  fragj: 9

>  <atom.prop.CHAIN_ID>  (666) 
A A A A A A A A A A A Z Z Z Z Z Z Z Z Z

>  <atom.prop.IS_HEAVY_ATOM>  (666) 
1 0 0 0 1 0 0 1 0 0 0 1 0 0 0 1 1 0 0 0

>  <DIFUSE_FUNC_ATOM>  (666) 
n/a

>  <FINAL_SINGLE_POINT_ENERGY>  (666) 
0

>  <NONCOV_INTER_ENERGY_QM>  (666) 
0

>  <FF_Energy>  (666) 
10.82

>  <QM_Energy>  (666) 
2.28

>  <source>  (666) 
ETAM_MSM

>  <Index>  (666) 
4025

$$$$
ETAM-pdb2z73-B-LYS-261:MSM-pdb2z73-B-MET-257
     RDKit          3D

 20 18  0  0  0  0  0  0  0  0999 V2000
    1.2363    0.8806    0.0000 C   0  0  0  0  0  0  0  0  0  0  0  0
    1.1418    1.5601   -0.7261 H   0  0  0  0  0  0  0  0  0  0  0  0
    2.0343    0.3069   -0.1753 H   0  0  0  0  0  0  0  0  0  0  0  0
    1.3730    1.3962    0.9505 H   0  0  0  0  0  0  0  0  0  0  0  0
    0.0000    0.0000    0.0000 C   0  0  0  0  0  0  0  0  0  0  0  0
    0.0147   -0.5798   -0.8162 H   0  0  0  0  0  0  0  0  0  0  0  0
    0.0145   -0.5802    0.8159 H   0  0  0  0  0  0  0  0  0  0  0  0
   -1.2363    0.8172    0.0000 N   0  0  0  0  0  4  0  0  0  0  0  0
   -2.0202    0.2379    0.2254 H   0  0  0  0  0  0  0  0  0  0  0  0
   -1.1551    1.5466    0.6808 H   0  0  0  0  0  0  0  0  0  0  0  0
   -1.3705    1.2210   -0.9054 H   0  0  0  0  0  0  0  0  0  0  0  0
   -3.0840    1.3426    2.4111 C   0  0  0  0  0  0  0  0  0  0  0  0
   -3.7553    0.6482    2.0483 H   0  0  0  0  0  0  0  0  0  0  0  0
   -2.4881    1.5774    1.6025 H   0  0  0  0  0  0  0  0  0  0  0  0
   -3.6377    2.2358    2.7004 H   0  0  0  0  0  0  0  0  0  0  0  0
   -2.0930    0.6303    3.7448 S   0  0  0  0  0  0  0  0  0  0  0  0
   -3.4007    0.0112    4.8458 C   0  0  0  0  0  0  0  0  0  0  0  0
   -4.2266    0.5487    4.6986 H   0  0  0  0  0  0  0  0  0  0  0  0
   -3.5743   -0.9472    4.6332 H   0  0  0  0  0  0  0  0  0  0  0  0
   -3.0962    0.1018    5.7906 H   0  0  0  0  0  0  0  0  0  0  0  0
  1  5  1  0
  5  8  1  0
  1  2  1  0
  1  3  1  0
  1  4  1  0
  5  6  1  0
  5  7  1  0
  8  9  1  0
  8 10  1  0
  8 11  1  0
 12 16  1  0
 16 17  1  0
 12 13  1  0
 12 14  1  0
 12 15  1  0
 17 18  1  0
 17 19  1  0
 17 20  1  0
M  CHG  1   8   1
M  END
>  <PDB_ID>  (667) 
pdb2z73

>  <RESIDUE_NAME>  (667) 
LYS   MET

>  <FRAG_NAME>  (667) 
ETAM   MSM

>  <FRAG_ATOM_NUM>  (667) 
fragi: 11  fragj: 9

>  <atom.prop.CHAIN_ID>  (667) 
A A A A A A A A A A A Z Z Z Z Z Z Z Z Z

>  <atom.prop.IS_HEAVY_ATOM>  (667) 
1 0 0 0 1 0 0 1 0 0 0 1 0 0 0 1 1 0 0 0

>  <DIFUSE_FUNC_ATOM>  (667) 
n/a

>  <FINAL_SINGLE_POINT_ENERGY>  (667) 
0

>  <NONCOV_INTER_ENERGY_QM>  (667) 
0

>  <FF_Energy>  (667) 
5.6

>  <QM_Energy>  (667) 
0.11

>  <source>  (667) 
ETAM_MSM

>  <Index>  (667) 
4027

$$$$
ETAM-pdb1tco-A-LYS-47:MSM-pdb1tco-A-MET-99
     RDKit          3D

 20 18  0  0  0  0  0  0  0  0999 V2000
    1.2775    0.8479   -0.0000 C   0  0  0  0  0  0  0  0  0  0  0  0
    1.1920    1.5427   -0.7136 H   0  0  0  0  0  0  0  0  0  0  0  0
    2.0495    0.2482   -0.2082 H   0  0  0  0  0  0  0  0  0  0  0  0
    1.4618    1.3432    0.9533 H   0  0  0  0  0  0  0  0  0  0  0  0
    0.0000    0.0000    0.0000 C   0  0  0  0  0  0  0  0  0  0  0  0
    0.0230   -0.6092   -0.8161 H   0  0  0  0  0  0  0  0  0  0  0  0
    0.0226   -0.6095    0.8164 H   0  0  0  0  0  0  0  0  0  0  0  0
   -1.2775    0.7613   -0.0000 N   0  0  0  0  0  4  0  0  0  0  0  0
   -2.0447    0.1220   -0.0405 H   0  0  0  0  0  0  0  0  0  0  0  0
   -1.3391    1.3060    0.8358 H   0  0  0  0  0  0  0  0  0  0  0  0
   -1.3038    1.3664   -0.7957 H   0  0  0  0  0  0  0  0  0  0  0  0
   -2.3828    4.4021    0.2851 C   0  0  0  0  0  0  0  0  0  0  0  0
   -2.5615    5.4195    0.3367 H   0  0  0  0  0  0  0  0  0  0  0  0
   -2.6010    4.0562    1.2343 H   0  0  0  0  0  0  0  0  0  0  0  0
   -3.0950    3.9632   -0.4136 H   0  0  0  0  0  0  0  0  0  0  0  0
   -0.6259    4.0920   -0.1086 S   0  0  0  0  0  0  0  0  0  0  0  0
   -0.2117    5.4144   -1.2213 C   0  0  0  0  0  0  0  0  0  0  0  0
    0.2044    5.0425   -2.0557 H   0  0  0  0  0  0  0  0  0  0  0  0
   -1.0389    5.9263   -1.4690 H   0  0  0  0  0  0  0  0  0  0  0  0
    0.4395    6.0403   -0.7832 H   0  0  0  0  0  0  0  0  0  0  0  0
  1  5  1  0
  5  8  1  0
  1  2  1  0
  1  3  1  0
  1  4  1  0
  5  6  1  0
  5  7  1  0
  8  9  1  0
  8 10  1  0
  8 11  1  0
 12 16  1  0
 16 17  1  0
 12 13  1  0
 12 14  1  0
 12 15  1  0
 17 18  1  0
 17 19  1  0
 17 20  1  0
M  CHG  1   8   1
M  END
>  <PDB_ID>  (668) 
pdb1tco

>  <RESIDUE_NAME>  (668) 
LYS   MET

>  <FRAG_NAME>  (668) 
ETAM   MSM

>  <FRAG_ATOM_NUM>  (668) 
fragi: 11  fragj: 9

>  <atom.prop.CHAIN_ID>  (668) 
A A A A A A A A A A A Z Z Z Z Z Z Z Z Z

>  <atom.prop.IS_HEAVY_ATOM>  (668) 
1 0 0 0 1 0 0 1 0 0 0 1 0 0 0 1 1 0 0 0

>  <DIFUSE_FUNC_ATOM>  (668) 
n/a

>  <FINAL_SINGLE_POINT_ENERGY>  (668) 
0

>  <NONCOV_INTER_ENERGY_QM>  (668) 
0

>  <FF_Energy>  (668) 
-5.39

>  <QM_Energy>  (668) 
-12.56

>  <source>  (668) 
ETAM_MSM

>  <Index>  (668) 
4032

$$$$
ETAM-pdb1tf5-A-LYS-632:MSM-pdb1tf5-A-MET-689
     RDKit          3D

 20 18  0  0  0  0  0  0  0  0999 V2000
    1.2471    0.8720    0.0000 C   0  0  0  0  0  0  0  0  0  0  0  0
    1.2326    1.4461    0.8110 H   0  0  0  0  0  0  0  0  0  0  0  0
    1.2431    1.4301   -0.8217 H   0  0  0  0  0  0  0  0  0  0  0  0
    2.1539    0.2673    0.0124 H   0  0  0  0  0  0  0  0  0  0  0  0
    0.0000    0.0000    0.0000 C   0  0  0  0  0  0  0  0  0  0  0  0
    0.0087   -0.5810   -0.8161 H   0  0  0  0  0  0  0  0  0  0  0  0
    0.0090   -0.5810    0.8165 H   0  0  0  0  0  0  0  0  0  0  0  0
   -1.2471    0.8217   -0.0000 N   0  0  0  0  0  4  0  0  0  0  0  0
   -1.0262    1.7540   -0.2798 H   0  0  0  0  0  0  0  0  0  0  0  0
   -1.9035    0.4242   -0.6399 H   0  0  0  0  0  0  0  0  0  0  0  0
   -1.6365    0.8289    0.9203 H   0  0  0  0  0  0  0  0  0  0  0  0
    0.0128    1.0546   -3.2060 C   0  0  0  0  0  0  0  0  0  0  0  0
    0.3960    1.9166   -3.6081 H   0  0  0  0  0  0  0  0  0  0  0  0
   -0.1150    1.2514   -2.2072 H   0  0  0  0  0  0  0  0  0  0  0  0
   -0.9645    0.8687   -3.6515 H   0  0  0  0  0  0  0  0  0  0  0  0
    1.1626   -0.3216   -3.4409 S   0  0  0  0  0  0  0  0  0  0  0  0
    2.1265    0.2838   -4.8157 C   0  0  0  0  0  0  0  0  0  0  0  0
    1.6765    1.0827   -5.2202 H   0  0  0  0  0  0  0  0  0  0  0  0
    3.0401    0.5461   -4.4990 H   0  0  0  0  0  0  0  0  0  0  0  0
    2.2118   -0.4321   -5.5116 H   0  0  0  0  0  0  0  0  0  0  0  0
  1  5  1  0
  5  8  1  0
  1  2  1  0
  1  3  1  0
  1  4  1  0
  5  6  1  0
  5  7  1  0
  8  9  1  0
  8 10  1  0
  8 11  1  0
 12 16  1  0
 16 17  1  0
 12 13  1  0
 12 14  1  0
 12 15  1  0
 17 18  1  0
 17 19  1  0
 17 20  1  0
M  CHG  1   8   1
M  END
>  <PDB_ID>  (669) 
pdb1tf5

>  <RESIDUE_NAME>  (669) 
LYS   MET

>  <FRAG_NAME>  (669) 
ETAM   MSM

>  <FRAG_ATOM_NUM>  (669) 
fragi: 11  fragj: 9

>  <atom.prop.CHAIN_ID>  (669) 
A A A A A A A A A A A Z Z Z Z Z Z Z Z Z

>  <atom.prop.IS_HEAVY_ATOM>  (669) 
1 0 0 0 1 0 0 1 0 0 0 1 0 0 0 1 1 0 0 0

>  <DIFUSE_FUNC_ATOM>  (669) 
n/a

>  <FINAL_SINGLE_POINT_ENERGY>  (669) 
0

>  <NONCOV_INTER_ENERGY_QM>  (669) 
0

>  <FF_Energy>  (669) 
2.22

>  <QM_Energy>  (669) 
-3.8

>  <source>  (669) 
ETAM_MSM

>  <Index>  (669) 
4043

$$$$
ETAM-pdb1tg6-F-LYS-147:MSM-pdb1tg6-F-MET-143
     RDKit          3D

 20 18  0  0  0  0  0  0  0  0999 V2000
    1.2441    0.8725   -0.0000 C   0  0  0  0  0  0  0  0  0  0  0  0
    1.2140    1.4715    0.7939 H   0  0  0  0  0  0  0  0  0  0  0  0
    1.2574    1.4090   -0.8378 H   0  0  0  0  0  0  0  0  0  0  0  0
    2.1545    0.2750    0.0476 H   0  0  0  0  0  0  0  0  0  0  0  0
    0.0000    0.0000    0.0000 C   0  0  0  0  0  0  0  0  0  0  0  0
    0.0042   -0.5776   -0.8164 H   0  0  0  0  0  0  0  0  0  0  0  0
    0.0047   -0.5776    0.8168 H   0  0  0  0  0  0  0  0  0  0  0  0
   -1.2441    0.8330    0.0000 N   0  0  0  0  0  4  0  0  0  0  0  0
   -1.2275    1.4464   -0.7872 H   0  0  0  0  0  0  0  0  0  0  0  0
   -2.0396    0.2332   -0.0564 H   0  0  0  0  0  0  0  0  0  0  0  0
   -1.2814    1.3655    0.8435 H   0  0  0  0  0  0  0  0  0  0  0  0
   -0.0837   -1.5347    4.0967 C   0  0  0  0  0  0  0  0  0  0  0  0
    0.6145   -2.0906    3.5919 H   0  0  0  0  0  0  0  0  0  0  0  0
   -0.9019   -2.1452    4.1943 H   0  0  0  0  0  0  0  0  0  0  0  0
    0.3036   -1.3080    5.0901 H   0  0  0  0  0  0  0  0  0  0  0  0
   -0.5087   -0.0492    3.1637 S   0  0  0  0  0  0  0  0  0  0  0  0
   -2.3448   -0.1764    3.1977 C   0  0  0  0  0  0  0  0  0  0  0  0
   -2.6705    0.2501    4.0329 H   0  0  0  0  0  0  0  0  0  0  0  0
   -2.7043    0.2950    2.4007 H   0  0  0  0  0  0  0  0  0  0  0  0
   -2.5899   -1.1383    3.1762 H   0  0  0  0  0  0  0  0  0  0  0  0
  1  5  1  0
  5  8  1  0
  1  2  1  0
  1  3  1  0
  1  4  1  0
  5  6  1  0
  5  7  1  0
  8  9  1  0
  8 10  1  0
  8 11  1  0
 12 16  1  0
 16 17  1  0
 12 13  1  0
 12 14  1  0
 12 15  1  0
 17 18  1  0
 17 19  1  0
 17 20  1  0
M  CHG  1   8   1
M  END
>  <PDB_ID>  (670) 
pdb1tg6

>  <RESIDUE_NAME>  (670) 
LYS   MET

>  <FRAG_NAME>  (670) 
ETAM   MSM

>  <FRAG_ATOM_NUM>  (670) 
fragi: 11  fragj: 9

>  <atom.prop.CHAIN_ID>  (670) 
A A A A A A A A A A A Z Z Z Z Z Z Z Z Z

>  <atom.prop.IS_HEAVY_ATOM>  (670) 
1 0 0 0 1 0 0 1 0 0 0 1 0 0 0 1 1 0 0 0

>  <DIFUSE_FUNC_ATOM>  (670) 
n/a

>  <FINAL_SINGLE_POINT_ENERGY>  (670) 
0

>  <NONCOV_INTER_ENERGY_QM>  (670) 
0

>  <FF_Energy>  (670) 
-0.07

>  <QM_Energy>  (670) 
-7.65

>  <source>  (670) 
ETAM_MSM

>  <Index>  (670) 
4057

$$$$
ETAM-pdb1tf5-A-LYS-414:MSM-pdb1tf5-A-MET-411
     RDKit          3D

 20 18  0  0  0  0  0  0  0  0999 V2000
    1.2463    0.8765   -0.0000 C   0  0  0  0  0  0  0  0  0  0  0  0
    1.1445    1.5775    0.6992 H   0  0  0  0  0  0  0  0  0  0  0  0
    1.3432    1.2939   -0.8977 H   0  0  0  0  0  0  0  0  0  0  0  0
    2.1486    0.3039    0.2149 H   0  0  0  0  0  0  0  0  0  0  0  0
    0.0000    0.0000    0.0000 C   0  0  0  0  0  0  0  0  0  0  0  0
    0.0182   -0.5863   -0.8160 H   0  0  0  0  0  0  0  0  0  0  0  0
    0.0176   -0.5863    0.8167 H   0  0  0  0  0  0  0  0  0  0  0  0
   -1.2463    0.8037    0.0000 N   0  0  0  0  0  4  0  0  0  0  0  0
   -1.9910    0.2648    0.3936 H   0  0  0  0  0  0  0  0  0  0  0  0
   -1.1106    1.6311    0.5450 H   0  0  0  0  0  0  0  0  0  0  0  0
   -1.4804    1.0586   -0.9390 H   0  0  0  0  0  0  0  0  0  0  0  0
   -1.9759   -1.9328   -4.2529 C   0  0  0  0  0  0  0  0  0  0  0  0
   -1.4724   -1.2993   -4.8783 H   0  0  0  0  0  0  0  0  0  0  0  0
   -2.7286   -2.3394   -4.8132 H   0  0  0  0  0  0  0  0  0  0  0  0
   -1.2988   -2.7300   -3.9460 H   0  0  0  0  0  0  0  0  0  0  0  0
   -2.6429   -1.0388   -2.8416 S   0  0  0  0  0  0  0  0  0  0  0  0
   -4.4001   -0.9880   -3.2764 C   0  0  0  0  0  0  0  0  0  0  0  0
   -4.9443   -1.0759   -2.4447 H   0  0  0  0  0  0  0  0  0  0  0  0
   -4.6005   -0.1182   -3.7225 H   0  0  0  0  0  0  0  0  0  0  0  0
   -4.6044   -1.7424   -3.8971 H   0  0  0  0  0  0  0  0  0  0  0  0
  1  5  1  0
  5  8  1  0
  1  2  1  0
  1  3  1  0
  1  4  1  0
  5  6  1  0
  5  7  1  0
  8  9  1  0
  8 10  1  0
  8 11  1  0
 12 16  1  0
 16 17  1  0
 12 13  1  0
 12 14  1  0
 12 15  1  0
 17 18  1  0
 17 19  1  0
 17 20  1  0
M  CHG  1   8   1
M  END
>  <PDB_ID>  (671) 
pdb1tf5

>  <RESIDUE_NAME>  (671) 
LYS   MET

>  <FRAG_NAME>  (671) 
ETAM   MSM

>  <FRAG_ATOM_NUM>  (671) 
fragi: 11  fragj: 9

>  <atom.prop.CHAIN_ID>  (671) 
A A A A A A A A A A A Z Z Z Z Z Z Z Z Z

>  <atom.prop.IS_HEAVY_ATOM>  (671) 
1 0 0 0 1 0 0 1 0 0 0 1 0 0 0 1 1 0 0 0

>  <DIFUSE_FUNC_ATOM>  (671) 
n/a

>  <FINAL_SINGLE_POINT_ENERGY>  (671) 
0

>  <NONCOV_INTER_ENERGY_QM>  (671) 
0

>  <FF_Energy>  (671) 
-5.33

>  <QM_Energy>  (671) 
-12.33

>  <source>  (671) 
ETAM_MSM

>  <Index>  (671) 
4066

$$$$
ETAM-pdb2zc0-C-LYS-266:MSM-pdb2zc0-C-MET-270
     RDKit          3D

 20 18  0  0  0  0  0  0  0  0999 V2000
    1.2662    0.8590    0.0000 C   0  0  0  0  0  0  0  0  0  0  0  0
    1.2221    1.4880   -0.7731 H   0  0  0  0  0  0  0  0  0  0  0  0
    2.0560    0.2585   -0.0947 H   0  0  0  0  0  0  0  0  0  0  0  0
    1.3803    1.4411    0.9145 H   0  0  0  0  0  0  0  0  0  0  0  0
    0.0000    0.0000    0.0000 C   0  0  0  0  0  0  0  0  0  0  0  0
    0.0093   -0.5907   -0.8164 H   0  0  0  0  0  0  0  0  0  0  0  0
    0.0095   -0.5907    0.8162 H   0  0  0  0  0  0  0  0  0  0  0  0
   -1.2662    0.8076    0.0000 N   0  0  0  0  0  4  0  0  0  0  0  0
   -2.0467    0.1869   -0.0157 H   0  0  0  0  0  0  0  0  0  0  0  0
   -1.2939    1.3680    0.8240 H   0  0  0  0  0  0  0  0  0  0  0  0
   -1.2795    1.3910   -0.8086 H   0  0  0  0  0  0  0  0  0  0  0  0
   -0.1988    0.2150    5.5718 C   0  0  0  0  0  0  0  0  0  0  0  0
   -1.1404    0.3261    5.9363 H   0  0  0  0  0  0  0  0  0  0  0  0
   -0.0184    1.0115    4.9686 H   0  0  0  0  0  0  0  0  0  0  0  0
    0.5104    0.2211    6.3995 H   0  0  0  0  0  0  0  0  0  0  0  0
   -0.0598   -1.3270    4.6401 S   0  0  0  0  0  0  0  0  0  0  0  0
   -0.6517   -0.7980    3.0907 C   0  0  0  0  0  0  0  0  0  0  0  0
    0.0894   -0.7915    2.4041 H   0  0  0  0  0  0  0  0  0  0  0  0
   -1.3813   -1.4103    2.7553 H   0  0  0  0  0  0  0  0  0  0  0  0
   -1.0309    0.1364    3.1484 H   0  0  0  0  0  0  0  0  0  0  0  0
  1  5  1  0
  5  8  1  0
  1  2  1  0
  1  3  1  0
  1  4  1  0
  5  6  1  0
  5  7  1  0
  8  9  1  0
  8 10  1  0
  8 11  1  0
 12 16  1  0
 16 17  1  0
 12 13  1  0
 12 14  1  0
 12 15  1  0
 17 18  1  0
 17 19  1  0
 17 20  1  0
M  CHG  1   8   1
M  END
>  <PDB_ID>  (672) 
pdb2zc0

>  <RESIDUE_NAME>  (672) 
LYS   MET

>  <FRAG_NAME>  (672) 
ETAM   MSM

>  <FRAG_ATOM_NUM>  (672) 
fragi: 11  fragj: 9

>  <atom.prop.CHAIN_ID>  (672) 
A A A A A A A A A A A Z Z Z Z Z Z Z Z Z

>  <atom.prop.IS_HEAVY_ATOM>  (672) 
1 0 0 0 1 0 0 1 0 0 0 1 0 0 0 1 1 0 0 0

>  <DIFUSE_FUNC_ATOM>  (672) 
n/a

>  <FINAL_SINGLE_POINT_ENERGY>  (672) 
0

>  <NONCOV_INTER_ENERGY_QM>  (672) 
0

>  <FF_Energy>  (672) 
17.37

>  <QM_Energy>  (672) 
3.27

>  <source>  (672) 
ETAM_MSM

>  <Index>  (672) 
4069

$$$$
ETAM-pdb2zc8-B-LYS-262:MSM-pdb2zc8-B-MET-291
     RDKit          3D

 20 18  0  0  0  0  0  0  0  0999 V2000
    1.2283    0.8889    0.0000 C   0  0  0  0  0  0  0  0  0  0  0  0
    1.1924    1.4866    0.7922 H   0  0  0  0  0  0  0  0  0  0  0  0
    1.2409    1.4196   -0.8396 H   0  0  0  0  0  0  0  0  0  0  0  0
    2.1427    0.2979    0.0523 H   0  0  0  0  0  0  0  0  0  0  0  0
    0.0000    0.0000    0.0000 C   0  0  0  0  0  0  0  0  0  0  0  0
    0.0033   -0.5650   -0.8159 H   0  0  0  0  0  0  0  0  0  0  0  0
    0.0025   -0.5647    0.8161 H   0  0  0  0  0  0  0  0  0  0  0  0
   -1.2283    0.8546   -0.0000 N   0  0  0  0  0  4  0  0  0  0  0  0
   -2.0358    0.2681    0.0296 H   0  0  0  0  0  0  0  0  0  0  0  0
   -1.2135    1.4493    0.8011 H   0  0  0  0  0  0  0  0  0  0  0  0
   -1.2426    1.4075   -0.8310 H   0  0  0  0  0  0  0  0  0  0  0  0
    0.8431    1.4147   -3.7713 C   0  0  0  0  0  0  0  0  0  0  0  0
    1.0764    0.5772   -3.2796 H   0  0  0  0  0  0  0  0  0  0  0  0
    1.6080    2.0545   -3.7267 H   0  0  0  0  0  0  0  0  0  0  0  0
    0.6760    1.1579   -4.8173 H   0  0  0  0  0  0  0  0  0  0  0  0
   -0.6773    2.1568   -3.1260 S   0  0  0  0  0  0  0  0  0  0  0  0
   -0.4562    3.9193   -3.6308 C   0  0  0  0  0  0  0  0  0  0  0  0
    0.3340    3.9714   -4.2282 H   0  0  0  0  0  0  0  0  0  0  0  0
   -1.2775    4.2089   -4.1055 H   0  0  0  0  0  0  0  0  0  0  0  0
   -0.3145    4.4586   -2.8107 H   0  0  0  0  0  0  0  0  0  0  0  0
  1  5  1  0
  5  8  1  0
  1  2  1  0
  1  3  1  0
  1  4  1  0
  5  6  1  0
  5  7  1  0
  8  9  1  0
  8 10  1  0
  8 11  1  0
 12 16  1  0
 16 17  1  0
 12 13  1  0
 12 14  1  0
 12 15  1  0
 17 18  1  0
 17 19  1  0
 17 20  1  0
M  CHG  1   8   1
M  END
>  <PDB_ID>  (673) 
pdb2zc8

>  <RESIDUE_NAME>  (673) 
LYS   MET

>  <FRAG_NAME>  (673) 
ETAM   MSM

>  <FRAG_ATOM_NUM>  (673) 
fragi: 11  fragj: 9

>  <atom.prop.CHAIN_ID>  (673) 
A A A A A A A A A A A Z Z Z Z Z Z Z Z Z

>  <atom.prop.IS_HEAVY_ATOM>  (673) 
1 0 0 0 1 0 0 1 0 0 0 1 0 0 0 1 1 0 0 0

>  <DIFUSE_FUNC_ATOM>  (673) 
n/a

>  <FINAL_SINGLE_POINT_ENERGY>  (673) 
0

>  <NONCOV_INTER_ENERGY_QM>  (673) 
0

>  <FF_Energy>  (673) 
-5.99

>  <QM_Energy>  (673) 
-16.23

>  <source>  (673) 
ETAM_MSM

>  <Index>  (673) 
4074

$$$$
ETAM-pdb2ze0-A-LYS-191:MSM-pdb2ze0-A-MET-78
     RDKit          3D

 20 18  0  0  0  0  0  0  0  0999 V2000
    1.2353    0.8819    0.0000 C   0  0  0  0  0  0  0  0  0  0  0  0
    2.0456    0.3047    0.0333 H   0  0  0  0  0  0  0  0  0  0  0  0
    1.2062    1.4807    0.7943 H   0  0  0  0  0  0  0  0  0  0  0  0
    1.2957    1.5027   -0.8939 H   0  0  0  0  0  0  0  0  0  0  0  0
    0.0000    0.0000    0.0000 C   0  0  0  0  0  0  0  0  0  0  0  0
   -0.0041   -0.5636   -0.8168 H   0  0  0  0  0  0  0  0  0  0  0  0
   -0.0038   -0.5638    0.8163 H   0  0  0  0  0  0  0  0  0  0  0  0
   -1.2353    0.8650    0.0000 N   0  0  0  0  0  4  0  0  0  0  0  0
   -0.9648    1.8114   -0.1554 H   0  0  0  0  0  0  0  0  0  0  0  0
   -1.8427    0.5579   -0.7277 H   0  0  0  0  0  0  0  0  0  0  0  0
   -1.6881    0.7796    0.8829 H   0  0  0  0  0  0  0  0  0  0  0  0
   -2.1200    0.1558    3.3209 C   0  0  0  0  0  0  0  0  0  0  0  0
   -2.7460   -0.3341    2.6876 H   0  0  0  0  0  0  0  0  0  0  0  0
   -2.1334    1.1351    3.0487 H   0  0  0  0  0  0  0  0  0  0  0  0
   -2.5129    0.0703    4.3341 H   0  0  0  0  0  0  0  0  0  0  0  0
   -0.4296   -0.5196    3.1975 S   0  0  0  0  0  0  0  0  0  0  0  0
   -0.6746   -2.2583    3.6138 C   0  0  0  0  0  0  0  0  0  0  0  0
   -0.2742   -2.8284    2.8978 H   0  0  0  0  0  0  0  0  0  0  0  0
   -0.2304   -2.4536    4.4871 H   0  0  0  0  0  0  0  0  0  0  0  0
   -1.6529   -2.4454    3.6844 H   0  0  0  0  0  0  0  0  0  0  0  0
  1  5  1  0
  5  8  1  0
  1  2  1  0
  1  3  1  0
  1  4  1  0
  5  6  1  0
  5  7  1  0
  8  9  1  0
  8 10  1  0
  8 11  1  0
 12 16  1  0
 16 17  1  0
 12 13  1  0
 12 14  1  0
 12 15  1  0
 17 18  1  0
 17 19  1  0
 17 20  1  0
M  CHG  1   8   1
M  END
>  <PDB_ID>  (674) 
pdb2ze0

>  <RESIDUE_NAME>  (674) 
LYS   MET

>  <FRAG_NAME>  (674) 
ETAM   MSM

>  <FRAG_ATOM_NUM>  (674) 
fragi: 11  fragj: 9

>  <atom.prop.CHAIN_ID>  (674) 
A A A A A A A A A A A Z Z Z Z Z Z Z Z Z

>  <atom.prop.IS_HEAVY_ATOM>  (674) 
1 0 0 0 1 0 0 1 0 0 0 1 0 0 0 1 1 0 0 0

>  <DIFUSE_FUNC_ATOM>  (674) 
n/a

>  <FINAL_SINGLE_POINT_ENERGY>  (674) 
0

>  <NONCOV_INTER_ENERGY_QM>  (674) 
0

>  <FF_Energy>  (674) 
0.62

>  <QM_Energy>  (674) 
-7.96

>  <source>  (674) 
ETAM_MSM

>  <Index>  (674) 
4084

$$$$
ETAM-pdb1tj7-A-LYS-283:MSM-pdb1tj7-A-MET-280
     RDKit          3D

 20 18  0  0  0  0  0  0  0  0999 V2000
    1.2758    0.8038   -0.0000 C   0  0  0  0  0  0  0  0  0  0  0  0
    1.2173    1.5020    0.7021 H   0  0  0  0  0  0  0  0  0  0  0  0
    1.3998    1.2122   -0.8948 H   0  0  0  0  0  0  0  0  0  0  0  0
    2.1306    0.1624    0.2143 H   0  0  0  0  0  0  0  0  0  0  0  0
    0.0000    0.0000    0.0000 C   0  0  0  0  0  0  0  0  0  0  0  0
   -0.0105   -0.6101   -0.8166 H   0  0  0  0  0  0  0  0  0  0  0  0
   -0.0111   -0.6107    0.8158 H   0  0  0  0  0  0  0  0  0  0  0  0
   -1.2758    0.8029   -0.0000 N   0  0  0  0  0  4  0  0  0  0  0  0
   -2.0378    0.1967   -0.2135 H   0  0  0  0  0  0  0  0  0  0  0  0
   -1.4023    1.2064    0.9020 H   0  0  0  0  0  0  0  0  0  0  0  0
   -1.2050    1.5196   -0.6882 H   0  0  0  0  0  0  0  0  0  0  0  0
   -2.4735   -2.8914    1.7010 C   0  0  0  0  0  0  0  0  0  0  0  0
   -2.9268   -3.5738    1.0309 H   0  0  0  0  0  0  0  0  0  0  0  0
   -2.8523   -3.2375    2.6271 H   0  0  0  0  0  0  0  0  0  0  0  0
   -1.4077   -3.1200    1.6988 H   0  0  0  0  0  0  0  0  0  0  0  0
   -3.1062   -1.1671    1.3669 S   0  0  0  0  0  0  0  0  0  0  0  0
   -3.1842   -0.4198    3.0864 C   0  0  0  0  0  0  0  0  0  0  0  0
   -2.2706   -0.4512    3.4615 H   0  0  0  0  0  0  0  0  0  0  0  0
   -3.5046    0.5091    2.9880 H   0  0  0  0  0  0  0  0  0  0  0  0
   -3.8134   -0.9672    3.6154 H   0  0  0  0  0  0  0  0  0  0  0  0
  1  5  1  0
  5  8  1  0
  1  2  1  0
  1  3  1  0
  1  4  1  0
  5  6  1  0
  5  7  1  0
  8  9  1  0
  8 10  1  0
  8 11  1  0
 12 16  1  0
 16 17  1  0
 12 13  1  0
 12 14  1  0
 12 15  1  0
 17 18  1  0
 17 19  1  0
 17 20  1  0
M  CHG  1   8   1
M  END
>  <PDB_ID>  (675) 
pdb1tj7

>  <RESIDUE_NAME>  (675) 
LYS   MET

>  <FRAG_NAME>  (675) 
ETAM   MSM

>  <FRAG_ATOM_NUM>  (675) 
fragi: 11  fragj: 9

>  <atom.prop.CHAIN_ID>  (675) 
A A A A A A A A A A A Z Z Z Z Z Z Z Z Z

>  <atom.prop.IS_HEAVY_ATOM>  (675) 
1 0 0 0 1 0 0 1 0 0 0 1 0 0 0 1 1 0 0 0

>  <DIFUSE_FUNC_ATOM>  (675) 
n/a

>  <FINAL_SINGLE_POINT_ENERGY>  (675) 
0

>  <NONCOV_INTER_ENERGY_QM>  (675) 
0

>  <FF_Energy>  (675) 
-3.77

>  <QM_Energy>  (675) 
-13.08

>  <source>  (675) 
ETAM_MSM

>  <Index>  (675) 
4085

$$$$
ETAM-pdb2zic-A-LYS-186:MSM-pdb2zic-A-MET-78
     RDKit          3D

 20 18  0  0  0  0  0  0  0  0999 V2000
    1.2480    0.8652    0.0000 C   0  0  0  0  0  0  0  0  0  0  0  0
    1.2086    1.4815   -0.7810 H   0  0  0  0  0  0  0  0  0  0  0  0
    2.0459    0.2737   -0.0677 H   0  0  0  0  0  0  0  0  0  0  0  0
    1.3273    1.4589    0.9107 H   0  0  0  0  0  0  0  0  0  0  0  0
    0.0000    0.0000    0.0000 C   0  0  0  0  0  0  0  0  0  0  0  0
    0.0051   -0.5826   -0.8160 H   0  0  0  0  0  0  0  0  0  0  0  0
    0.0047   -0.5834    0.8166 H   0  0  0  0  0  0  0  0  0  0  0  0
   -1.2480    0.8243    0.0000 N   0  0  0  0  0  4  0  0  0  0  0  0
   -2.0147    0.2588   -0.2975 H   0  0  0  0  0  0  0  0  0  0  0  0
   -1.4166    1.1628    0.9238 H   0  0  0  0  0  0  0  0  0  0  0  0
   -1.1332    1.5938   -0.6262 H   0  0  0  0  0  0  0  0  0  0  0  0
   -3.3364   -0.4484   -3.2299 C   0  0  0  0  0  0  0  0  0  0  0  0
   -3.2123    0.5138   -3.5506 H   0  0  0  0  0  0  0  0  0  0  0  0
   -3.8474   -0.3890   -2.3473 H   0  0  0  0  0  0  0  0  0  0  0  0
   -3.9578   -0.9755   -3.9539 H   0  0  0  0  0  0  0  0  0  0  0  0
   -1.7154   -1.2493   -2.9755 S   0  0  0  0  0  0  0  0  0  0  0  0
   -0.8369   -0.6560   -4.4167 C   0  0  0  0  0  0  0  0  0  0  0  0
   -1.1095    0.2872   -4.6129 H   0  0  0  0  0  0  0  0  0  0  0  0
    0.1494   -0.6867   -4.2459 H   0  0  0  0  0  0  0  0  0  0  0  0
   -1.0547   -1.2335   -5.2048 H   0  0  0  0  0  0  0  0  0  0  0  0
  1  5  1  0
  5  8  1  0
  1  2  1  0
  1  3  1  0
  1  4  1  0
  5  6  1  0
  5  7  1  0
  8  9  1  0
  8 10  1  0
  8 11  1  0
 12 16  1  0
 16 17  1  0
 12 13  1  0
 12 14  1  0
 12 15  1  0
 17 18  1  0
 17 19  1  0
 17 20  1  0
M  CHG  1   8   1
M  END
>  <PDB_ID>  (676) 
pdb2zic

>  <RESIDUE_NAME>  (676) 
LYS   MET

>  <FRAG_NAME>  (676) 
ETAM   MSM

>  <FRAG_ATOM_NUM>  (676) 
fragi: 11  fragj: 9

>  <atom.prop.CHAIN_ID>  (676) 
A A A A A A A A A A A Z Z Z Z Z Z Z Z Z

>  <atom.prop.IS_HEAVY_ATOM>  (676) 
1 0 0 0 1 0 0 1 0 0 0 1 0 0 0 1 1 0 0 0

>  <DIFUSE_FUNC_ATOM>  (676) 
n/a

>  <FINAL_SINGLE_POINT_ENERGY>  (676) 
0

>  <NONCOV_INTER_ENERGY_QM>  (676) 
0

>  <FF_Energy>  (676) 
-4.21

>  <QM_Energy>  (676) 
-10.62

>  <source>  (676) 
ETAM_MSM

>  <Index>  (676) 
4111

$$$$
ETAM-pdb1tqn-A-LYS-70:MSM-pdb1tqn-A-MET-89
     RDKit          3D

 20 18  0  0  0  0  0  0  0  0999 V2000
    1.2872    0.8593    0.0000 C   0  0  0  0  0  0  0  0  0  0  0  0
    1.2465    1.4800    0.7695 H   0  0  0  0  0  0  0  0  0  0  0  0
    1.3318    1.3527   -0.8561 H   0  0  0  0  0  0  0  0  0  0  0  0
    2.1812    0.2431    0.0955 H   0  0  0  0  0  0  0  0  0  0  0  0
    0.0000    0.0000    0.0000 C   0  0  0  0  0  0  0  0  0  0  0  0
    0.0201   -0.5998   -0.8164 H   0  0  0  0  0  0  0  0  0  0  0  0
    0.0195   -0.5999    0.8165 H   0  0  0  0  0  0  0  0  0  0  0  0
   -1.2872    0.7792   -0.0000 N   0  0  0  0  0  4  0  0  0  0  0  0
   -1.9207    0.3568    0.6442 H   0  0  0  0  0  0  0  0  0  0  0  0
   -1.0968    1.7181    0.2747 H   0  0  0  0  0  0  0  0  0  0  0  0
   -1.6740    0.7646   -0.9189 H   0  0  0  0  0  0  0  0  0  0  0  0
   -5.7873    1.7215   -2.8808 C   0  0  0  0  0  0  0  0  0  0  0  0
   -6.0540    1.9098   -3.8375 H   0  0  0  0  0  0  0  0  0  0  0  0
   -6.4526    2.1845   -2.2783 H   0  0  0  0  0  0  0  0  0  0  0  0
   -5.8293    0.6470   -2.7029 H   0  0  0  0  0  0  0  0  0  0  0  0
   -4.1154    2.3111   -2.5562 S   0  0  0  0  0  0  0  0  0  0  0  0
   -3.9300    1.8230   -0.7737 C   0  0  0  0  0  0  0  0  0  0  0  0
   -3.8096    2.6507   -0.2439 H   0  0  0  0  0  0  0  0  0  0  0  0
   -4.7540    1.3442   -0.5035 H   0  0  0  0  0  0  0  0  0  0  0  0
   -3.1359    1.2351   -0.7016 H   0  0  0  0  0  0  0  0  0  0  0  0
  1  5  1  0
  5  8  1  0
  1  2  1  0
  1  3  1  0
  1  4  1  0
  5  6  1  0
  5  7  1  0
  8  9  1  0
  8 10  1  0
  8 11  1  0
 12 16  1  0
 16 17  1  0
 12 13  1  0
 12 14  1  0
 12 15  1  0
 17 18  1  0
 17 19  1  0
 17 20  1  0
M  CHG  1   8   1
M  END
>  <PDB_ID>  (677) 
pdb1tqn

>  <RESIDUE_NAME>  (677) 
LYS   MET

>  <FRAG_NAME>  (677) 
ETAM   MSM

>  <FRAG_ATOM_NUM>  (677) 
fragi: 11  fragj: 9

>  <atom.prop.CHAIN_ID>  (677) 
A A A A A A A A A A A Z Z Z Z Z Z Z Z Z

>  <atom.prop.IS_HEAVY_ATOM>  (677) 
1 0 0 0 1 0 0 1 0 0 0 1 0 0 0 1 1 0 0 0

>  <DIFUSE_FUNC_ATOM>  (677) 
n/a

>  <FINAL_SINGLE_POINT_ENERGY>  (677) 
0

>  <NONCOV_INTER_ENERGY_QM>  (677) 
0

>  <FF_Energy>  (677) 
16.22

>  <QM_Energy>  (677) 
4.58

>  <source>  (677) 
ETAM_MSM

>  <Index>  (677) 
4112

$$$$
ETAM-pdb2zj2-A-LYS-33:MSM-pdb2zj2-A-MET-1
     RDKit          3D

 20 18  0  0  0  0  0  0  0  0999 V2000
    1.2645    0.8776    0.0000 C   0  0  0  0  0  0  0  0  0  0  0  0
    1.2682    1.4205    0.8286 H   0  0  0  0  0  0  0  0  0  0  0  0
    1.2440    1.4562   -0.8046 H   0  0  0  0  0  0  0  0  0  0  0  0
    2.1707    0.2723   -0.0263 H   0  0  0  0  0  0  0  0  0  0  0  0
    0.0000    0.0000    0.0000 C   0  0  0  0  0  0  0  0  0  0  0  0
    0.0164   -0.5846   -0.8160 H   0  0  0  0  0  0  0  0  0  0  0  0
    0.0160   -0.5846    0.8167 H   0  0  0  0  0  0  0  0  0  0  0  0
   -1.2645    0.8069    0.0000 N   0  0  0  0  0  4  0  0  0  0  0  0
   -1.1748    1.5529    0.6561 H   0  0  0  0  0  0  0  0  0  0  0  0
   -1.4153    1.1766   -0.9146 H   0  0  0  0  0  0  0  0  0  0  0  0
   -2.0272    0.2179    0.2576 H   0  0  0  0  0  0  0  0  0  0  0  0
   -2.2217   -3.8104   -0.3025 C   0  0  0  0  0  0  0  0  0  0  0  0
   -2.2086   -4.8364   -0.3475 H   0  0  0  0  0  0  0  0  0  0  0  0
   -2.8531   -3.5144   -1.0572 H   0  0  0  0  0  0  0  0  0  0  0  0
   -2.6514   -3.5083    0.6526 H   0  0  0  0  0  0  0  0  0  0  0  0
   -0.5478   -3.1463   -0.5858 S   0  0  0  0  0  0  0  0  0  0  0  0
   -0.8276   -2.3601   -2.2236 C   0  0  0  0  0  0  0  0  0  0  0  0
   -1.5182   -2.8853   -2.7082 H   0  0  0  0  0  0  0  0  0  0  0  0
   -1.1383   -1.4286   -2.0737 H   0  0  0  0  0  0  0  0  0  0  0  0
    0.0311   -2.3664   -2.7234 H   0  0  0  0  0  0  0  0  0  0  0  0
  1  5  1  0
  5  8  1  0
  1  2  1  0
  1  3  1  0
  1  4  1  0
  5  6  1  0
  5  7  1  0
  8  9  1  0
  8 10  1  0
  8 11  1  0
 12 16  1  0
 16 17  1  0
 12 13  1  0
 12 14  1  0
 12 15  1  0
 17 18  1  0
 17 19  1  0
 17 20  1  0
M  CHG  1   8   1
M  END
>  <PDB_ID>  (678) 
pdb2zj2

>  <RESIDUE_NAME>  (678) 
LYS   MET

>  <FRAG_NAME>  (678) 
ETAM   MSM

>  <FRAG_ATOM_NUM>  (678) 
fragi: 11  fragj: 9

>  <atom.prop.CHAIN_ID>  (678) 
A A A A A A A A A A A Z Z Z Z Z Z Z Z Z

>  <atom.prop.IS_HEAVY_ATOM>  (678) 
1 0 0 0 1 0 0 1 0 0 0 1 0 0 0 1 1 0 0 0

>  <DIFUSE_FUNC_ATOM>  (678) 
n/a

>  <FINAL_SINGLE_POINT_ENERGY>  (678) 
0

>  <NONCOV_INTER_ENERGY_QM>  (678) 
0

>  <FF_Energy>  (678) 
2.84

>  <QM_Energy>  (678) 
-3.39

>  <source>  (678) 
ETAM_MSM

>  <Index>  (678) 
4114

$$$$
ETAM-pdb1tqx-A-LYS-163:MSM-pdb1tqx-A-MET-160
     RDKit          3D

 20 18  0  0  0  0  0  0  0  0999 V2000
    1.2412    0.8791    0.0000 C   0  0  0  0  0  0  0  0  0  0  0  0
    1.2266    1.4464    0.8192 H   0  0  0  0  0  0  0  0  0  0  0  0
    1.2210    1.4534   -0.8140 H   0  0  0  0  0  0  0  0  0  0  0  0
    2.1558    0.2861   -0.0052 H   0  0  0  0  0  0  0  0  0  0  0  0
    0.0000    0.0000    0.0000 C   0  0  0  0  0  0  0  0  0  0  0  0
    0.0054   -0.5730   -0.8163 H   0  0  0  0  0  0  0  0  0  0  0  0
    0.0051   -0.5738    0.8165 H   0  0  0  0  0  0  0  0  0  0  0  0
   -1.2412    0.8386   -0.0000 N   0  0  0  0  0  4  0  0  0  0  0  0
   -1.7429    0.6792    0.8480 H   0  0  0  0  0  0  0  0  0  0  0  0
   -0.9857    1.8011   -0.0664 H   0  0  0  0  0  0  0  0  0  0  0  0
   -1.8072    0.5839   -0.7820 H   0  0  0  0  0  0  0  0  0  0  0  0
    0.0324    0.9638    5.0814 C   0  0  0  0  0  0  0  0  0  0  0  0
   -0.1979    0.2872    5.8136 H   0  0  0  0  0  0  0  0  0  0  0  0
   -0.3451    1.8599    5.3995 H   0  0  0  0  0  0  0  0  0  0  0  0
    1.1172    1.0471    5.0156 H   0  0  0  0  0  0  0  0  0  0  0  0
   -0.7050    0.4815    3.5106 S   0  0  0  0  0  0  0  0  0  0  0  0
   -0.9256   -1.3115    3.7204 C   0  0  0  0  0  0  0  0  0  0  0  0
   -0.3098   -1.7870    3.0969 H   0  0  0  0  0  0  0  0  0  0  0  0
   -0.7121   -1.5540    4.6629 H   0  0  0  0  0  0  0  0  0  0  0  0
   -1.8716   -1.5464    3.5123 H   0  0  0  0  0  0  0  0  0  0  0  0
  1  5  1  0
  5  8  1  0
  1  2  1  0
  1  3  1  0
  1  4  1  0
  5  6  1  0
  5  7  1  0
  8  9  1  0
  8 10  1  0
  8 11  1  0
 12 16  1  0
 16 17  1  0
 12 13  1  0
 12 14  1  0
 12 15  1  0
 17 18  1  0
 17 19  1  0
 17 20  1  0
M  CHG  1   8   1
M  END
>  <PDB_ID>  (679) 
pdb1tqx

>  <RESIDUE_NAME>  (679) 
LYS   MET

>  <FRAG_NAME>  (679) 
ETAM   MSM

>  <FRAG_ATOM_NUM>  (679) 
fragi: 11  fragj: 9

>  <atom.prop.CHAIN_ID>  (679) 
A A A A A A A A A A A Z Z Z Z Z Z Z Z Z

>  <atom.prop.IS_HEAVY_ATOM>  (679) 
1 0 0 0 1 0 0 1 0 0 0 1 0 0 0 1 1 0 0 0

>  <DIFUSE_FUNC_ATOM>  (679) 
n/a

>  <FINAL_SINGLE_POINT_ENERGY>  (679) 
0

>  <NONCOV_INTER_ENERGY_QM>  (679) 
0

>  <FF_Energy>  (679) 
-5.52

>  <QM_Energy>  (679) 
-12.07

>  <source>  (679) 
ETAM_MSM

>  <Index>  (679) 
4115

$$$$
ETAM-pdb1tsq-A-LYS-20:MSM-pdb1tsq-A-MET-36
     RDKit          3D

 20 18  0  0  0  0  0  0  0  0999 V2000
    1.2547    0.8738   -0.0000 C   0  0  0  0  0  0  0  0  0  0  0  0
    1.2922    1.3682    0.8601 H   0  0  0  0  0  0  0  0  0  0  0  0
    1.1978    1.5035   -0.7651 H   0  0  0  0  0  0  0  0  0  0  0  0
    2.1559    0.2692   -0.1018 H   0  0  0  0  0  0  0  0  0  0  0  0
    0.0000    0.0000    0.0000 C   0  0  0  0  0  0  0  0  0  0  0  0
    0.0150   -0.5848   -0.8161 H   0  0  0  0  0  0  0  0  0  0  0  0
    0.0147   -0.5853    0.8162 H   0  0  0  0  0  0  0  0  0  0  0  0
   -1.2547    0.8092    0.0000 N   0  0  0  0  0  4  0  0  0  0  0  0
   -2.0380    0.2013    0.1192 H   0  0  0  0  0  0  0  0  0  0  0  0
   -1.2218    1.4679    0.7507 H   0  0  0  0  0  0  0  0  0  0  0  0
   -1.3342    1.2933   -0.8699 H   0  0  0  0  0  0  0  0  0  0  0  0
   -3.4013    4.0813    2.5214 C   0  0  0  0  0  0  0  0  0  0  0  0
   -3.2508    4.9873    2.0874 H   0  0  0  0  0  0  0  0  0  0  0  0
   -3.8939    4.2486    3.3945 H   0  0  0  0  0  0  0  0  0  0  0  0
   -4.0237    3.4699    1.8680 H   0  0  0  0  0  0  0  0  0  0  0  0
   -1.8162    3.2620    2.8387 S   0  0  0  0  0  0  0  0  0  0  0  0
   -2.3743    1.7228    3.5904 C   0  0  0  0  0  0  0  0  0  0  0  0
   -3.3582    1.6247    3.4509 H   0  0  0  0  0  0  0  0  0  0  0  0
   -1.8974    0.9552    3.1649 H   0  0  0  0  0  0  0  0  0  0  0  0
   -2.1740    1.7417    4.5689 H   0  0  0  0  0  0  0  0  0  0  0  0
  1  5  1  0
  5  8  1  0
  1  2  1  0
  1  3  1  0
  1  4  1  0
  5  6  1  0
  5  7  1  0
  8  9  1  0
  8 10  1  0
  8 11  1  0
 12 16  1  0
 16 17  1  0
 12 13  1  0
 12 14  1  0
 12 15  1  0
 17 18  1  0
 17 19  1  0
 17 20  1  0
M  CHG  1   8   1
M  END
>  <PDB_ID>  (680) 
pdb1tsq

>  <RESIDUE_NAME>  (680) 
LYS   MET

>  <FRAG_NAME>  (680) 
ETAM   MSM

>  <FRAG_ATOM_NUM>  (680) 
fragi: 11  fragj: 9

>  <atom.prop.CHAIN_ID>  (680) 
A A A A A A A A A A A Z Z Z Z Z Z Z Z Z

>  <atom.prop.IS_HEAVY_ATOM>  (680) 
1 0 0 0 1 0 0 1 0 0 0 1 0 0 0 1 1 0 0 0

>  <DIFUSE_FUNC_ATOM>  (680) 
n/a

>  <FINAL_SINGLE_POINT_ENERGY>  (680) 
0

>  <NONCOV_INTER_ENERGY_QM>  (680) 
0

>  <FF_Energy>  (680) 
-3.61

>  <QM_Energy>  (680) 
-11.04

>  <source>  (680) 
ETAM_MSM

>  <Index>  (680) 
4118

$$$$
ETAM-pdb1tqx-B-LYS-163:MSM-pdb1tqx-B-MET-160
     RDKit          3D

 20 18  0  0  0  0  0  0  0  0999 V2000
    1.2490    0.8694   -0.0000 C   0  0  0  0  0  0  0  0  0  0  0  0
    1.2760    1.3874    0.8502 H   0  0  0  0  0  0  0  0  0  0  0  0
    1.2061    1.4881   -0.7785 H   0  0  0  0  0  0  0  0  0  0  0  0
    2.1594    0.2749   -0.0756 H   0  0  0  0  0  0  0  0  0  0  0  0
    0.0000    0.0000    0.0000 C   0  0  0  0  0  0  0  0  0  0  0  0
    0.0081   -0.5828   -0.8164 H   0  0  0  0  0  0  0  0  0  0  0  0
    0.0083   -0.5834    0.8160 H   0  0  0  0  0  0  0  0  0  0  0  0
   -1.2490    0.8199    0.0000 N   0  0  0  0  0  4  0  0  0  0  0  0
   -1.7596    0.6399   -0.8388 H   0  0  0  0  0  0  0  0  0  0  0  0
   -1.8045    0.5731    0.7918 H   0  0  0  0  0  0  0  0  0  0  0  0
   -1.0074    1.7872    0.0467 H   0  0  0  0  0  0  0  0  0  0  0  0
    0.0757    0.2014    5.0059 C   0  0  0  0  0  0  0  0  0  0  0  0
   -0.1002   -0.5693    5.6529 H   0  0  0  0  0  0  0  0  0  0  0  0
   -0.3028    1.0378    5.4539 H   0  0  0  0  0  0  0  0  0  0  0  0
    1.1537    0.3238    4.9011 H   0  0  0  0  0  0  0  0  0  0  0  0
   -0.7234   -0.0952    3.4203 S   0  0  0  0  0  0  0  0  0  0  0  0
   -0.8077   -1.8944    3.3962 C   0  0  0  0  0  0  0  0  0  0  0  0
   -1.2766   -2.2149    4.2188 H   0  0  0  0  0  0  0  0  0  0  0  0
   -1.3121   -2.1914    2.5858 H   0  0  0  0  0  0  0  0  0  0  0  0
    0.1185   -2.2688    3.3709 H   0  0  0  0  0  0  0  0  0  0  0  0
  1  5  1  0
  5  8  1  0
  1  2  1  0
  1  3  1  0
  1  4  1  0
  5  6  1  0
  5  7  1  0
  8  9  1  0
  8 10  1  0
  8 11  1  0
 12 16  1  0
 16 17  1  0
 12 13  1  0
 12 14  1  0
 12 15  1  0
 17 18  1  0
 17 19  1  0
 17 20  1  0
M  CHG  1   8   1
M  END
>  <PDB_ID>  (681) 
pdb1tqx

>  <RESIDUE_NAME>  (681) 
LYS   MET

>  <FRAG_NAME>  (681) 
ETAM   MSM

>  <FRAG_ATOM_NUM>  (681) 
fragi: 11  fragj: 9

>  <atom.prop.CHAIN_ID>  (681) 
A A A A A A A A A A A Z Z Z Z Z Z Z Z Z

>  <atom.prop.IS_HEAVY_ATOM>  (681) 
1 0 0 0 1 0 0 1 0 0 0 1 0 0 0 1 1 0 0 0

>  <DIFUSE_FUNC_ATOM>  (681) 
n/a

>  <FINAL_SINGLE_POINT_ENERGY>  (681) 
0

>  <NONCOV_INTER_ENERGY_QM>  (681) 
0

>  <FF_Energy>  (681) 
-4.9

>  <QM_Energy>  (681) 
-11.81

>  <source>  (681) 
ETAM_MSM

>  <Index>  (681) 
4126

$$$$
ETAM-pdb2zf3-F-LYS-79:MSM-pdb2zf3-F-MET-64
     RDKit          3D

 20 18  0  0  0  0  0  0  0  0999 V2000
    1.2235    0.8674   -0.0000 C   0  0  0  0  0  0  0  0  0  0  0  0
    1.3478    1.2494    0.9119 H   0  0  0  0  0  0  0  0  0  0  0  0
    1.0986    1.6008   -0.6628 H   0  0  0  0  0  0  0  0  0  0  0  0
    2.1100    0.2926   -0.2679 H   0  0  0  0  0  0  0  0  0  0  0  0
    0.0000    0.0000    0.0000 C   0  0  0  0  0  0  0  0  0  0  0  0
   -0.0139   -0.5648   -0.8158 H   0  0  0  0  0  0  0  0  0  0  0  0
   -0.0148   -0.5648    0.8157 H   0  0  0  0  0  0  0  0  0  0  0  0
   -1.2235    0.8760   -0.0000 N   0  0  0  0  0  4  0  0  0  0  0  0
   -1.3289    1.2846   -0.9033 H   0  0  0  0  0  0  0  0  0  0  0  0
   -2.0205    0.3183    0.2176 H   0  0  0  0  0  0  0  0  0  0  0  0
   -1.1103    1.5906    0.6858 H   0  0  0  0  0  0  0  0  0  0  0  0
    2.6997   -3.1442   -3.1564 C   0  0  0  0  0  0  0  0  0  0  0  0
    2.9619   -4.1141   -3.2250 H   0  0  0  0  0  0  0  0  0  0  0  0
    2.9838   -2.8027   -2.2523 H   0  0  0  0  0  0  0  0  0  0  0  0
    3.1966   -2.5724   -3.9402 H   0  0  0  0  0  0  0  0  0  0  0  0
    0.8944   -2.9678   -3.3540 S   0  0  0  0  0  0  0  0  0  0  0  0
    0.7059   -1.2629   -3.0287 C   0  0  0  0  0  0  0  0  0  0  0  0
   -0.2567   -0.9809   -3.1392 H   0  0  0  0  0  0  0  0  0  0  0  0
    0.9901   -1.0441   -2.0859 H   0  0  0  0  0  0  0  0  0  0  0  0
    1.2684   -0.7128   -3.6610 H   0  0  0  0  0  0  0  0  0  0  0  0
  1  5  1  0
  5  8  1  0
  1  2  1  0
  1  3  1  0
  1  4  1  0
  5  6  1  0
  5  7  1  0
  8  9  1  0
  8 10  1  0
  8 11  1  0
 12 16  1  0
 16 17  1  0
 12 13  1  0
 12 14  1  0
 12 15  1  0
 17 18  1  0
 17 19  1  0
 17 20  1  0
M  CHG  1   8   1
M  END
>  <PDB_ID>  (682) 
pdb2zf3

>  <RESIDUE_NAME>  (682) 
LYS   MET

>  <FRAG_NAME>  (682) 
ETAM   MSM

>  <FRAG_ATOM_NUM>  (682) 
fragi: 11  fragj: 9

>  <atom.prop.CHAIN_ID>  (682) 
A A A A A A A A A A A Z Z Z Z Z Z Z Z Z

>  <atom.prop.IS_HEAVY_ATOM>  (682) 
1 0 0 0 1 0 0 1 0 0 0 1 0 0 0 1 1 0 0 0

>  <DIFUSE_FUNC_ATOM>  (682) 
n/a

>  <FINAL_SINGLE_POINT_ENERGY>  (682) 
0

>  <NONCOV_INTER_ENERGY_QM>  (682) 
0

>  <FF_Energy>  (682) 
9.35

>  <QM_Energy>  (682) 
1.71

>  <source>  (682) 
ETAM_MSM

>  <Index>  (682) 
4137

$$$$
ETAM-pdb2zoq-A-LYS-181:MSM-pdb2zoq-A-MET-125
     RDKit          3D

 20 18  0  0  0  0  0  0  0  0999 V2000
    1.2265    0.8869    0.0000 C   0  0  0  0  0  0  0  0  0  0  0  0
    1.1675    1.5119    0.7746 H   0  0  0  0  0  0  0  0  0  0  0  0
    1.2461    1.4020   -0.8529 H   0  0  0  0  0  0  0  0  0  0  0  0
    2.1436    0.3038    0.0844 H   0  0  0  0  0  0  0  0  0  0  0  0
    0.0000    0.0000    0.0000 C   0  0  0  0  0  0  0  0  0  0  0  0
    0.0123   -0.5736   -0.8163 H   0  0  0  0  0  0  0  0  0  0  0  0
    0.0124   -0.5745    0.8162 H   0  0  0  0  0  0  0  0  0  0  0  0
   -1.2265    0.8293    0.0000 N   0  0  0  0  0  4  0  0  0  0  0  0
   -1.0565    1.6793    0.5006 H   0  0  0  0  0  0  0  0  0  0  0  0
   -1.4855    1.0458   -0.9423 H   0  0  0  0  0  0  0  0  0  0  0  0
   -1.9710    0.3263    0.4413 H   0  0  0  0  0  0  0  0  0  0  0  0
    1.2761    1.7885    5.3028 C   0  0  0  0  0  0  0  0  0  0  0  0
    2.2265    1.8280    4.9138 H   0  0  0  0  0  0  0  0  0  0  0  0
    1.2899    1.0002    5.9635 H   0  0  0  0  0  0  0  0  0  0  0  0
    1.0810    2.7090    5.8531 H   0  0  0  0  0  0  0  0  0  0  0  0
    0.0705    1.4777    3.9824 S   0  0  0  0  0  0  0  0  0  0  0  0
    0.9106    0.1451    3.1467 C   0  0  0  0  0  0  0  0  0  0  0  0
    0.5425   -0.7345    3.4550 H   0  0  0  0  0  0  0  0  0  0  0  0
    0.7784    0.2284    2.1565 H   0  0  0  0  0  0  0  0  0  0  0  0
    1.8910    0.1805    3.3511 H   0  0  0  0  0  0  0  0  0  0  0  0
  1  5  1  0
  5  8  1  0
  1  2  1  0
  1  3  1  0
  1  4  1  0
  5  6  1  0
  5  7  1  0
  8  9  1  0
  8 10  1  0
  8 11  1  0
 12 16  1  0
 16 17  1  0
 12 13  1  0
 12 14  1  0
 12 15  1  0
 17 18  1  0
 17 19  1  0
 17 20  1  0
M  CHG  1   8   1
M  END
>  <PDB_ID>  (683) 
pdb2zoq

>  <RESIDUE_NAME>  (683) 
LYS   MET

>  <FRAG_NAME>  (683) 
ETAM   MSM

>  <FRAG_ATOM_NUM>  (683) 
fragi: 11  fragj: 9

>  <atom.prop.CHAIN_ID>  (683) 
A A A A A A A A A A A Z Z Z Z Z Z Z Z Z

>  <atom.prop.IS_HEAVY_ATOM>  (683) 
1 0 0 0 1 0 0 1 0 0 0 1 0 0 0 1 1 0 0 0

>  <DIFUSE_FUNC_ATOM>  (683) 
n/a

>  <FINAL_SINGLE_POINT_ENERGY>  (683) 
0

>  <NONCOV_INTER_ENERGY_QM>  (683) 
0

>  <FF_Energy>  (683) 
10.54

>  <QM_Energy>  (683) 
-0.64

>  <source>  (683) 
ETAM_MSM

>  <Index>  (683) 
4151

$$$$
ETAM-pdb2zqz-B-LYS-225:MSM-pdb2zqz-B-MET-177
     RDKit          3D

 20 18  0  0  0  0  0  0  0  0999 V2000
    1.2514    0.8722    0.0000 C   0  0  0  0  0  0  0  0  0  0  0  0
    1.3721    1.2491   -0.9104 H   0  0  0  0  0  0  0  0  0  0  0  0
    2.0285    0.3077    0.2515 H   0  0  0  0  0  0  0  0  0  0  0  0
    1.1591    1.6901    0.7146 H   0  0  0  0  0  0  0  0  0  0  0  0
    0.0000    0.0000    0.0000 C   0  0  0  0  0  0  0  0  0  0  0  0
    0.0125   -0.5843   -0.8165 H   0  0  0  0  0  0  0  0  0  0  0  0
    0.0125   -0.5845    0.8166 H   0  0  0  0  0  0  0  0  0  0  0  0
   -1.2514    0.8123   -0.0000 N   0  0  0  0  0  4  0  0  0  0  0  0
   -1.4770    1.0712    0.9383 H   0  0  0  0  0  0  0  0  0  0  0  0
   -1.1114    1.6336   -0.5515 H   0  0  0  0  0  0  0  0  0  0  0  0
   -1.9967    0.2704   -0.3869 H   0  0  0  0  0  0  0  0  0  0  0  0
    0.4868   -3.1547    2.3072 C   0  0  0  0  0  0  0  0  0  0  0  0
    0.9332   -4.0528    2.1127 H   0  0  0  0  0  0  0  0  0  0  0  0
    0.4121   -2.6746    1.4086 H   0  0  0  0  0  0  0  0  0  0  0  0
   -0.5176   -3.3408    2.6875 H   0  0  0  0  0  0  0  0  0  0  0  0
    1.4579   -2.1952    3.4669 S   0  0  0  0  0  0  0  0  0  0  0  0
    1.1427   -0.5775    2.9207 C   0  0  0  0  0  0  0  0  0  0  0  0
    0.1878   -0.4810    2.6039 H   0  0  0  0  0  0  0  0  0  0  0  0
    1.2919    0.0920    3.6629 H   0  0  0  0  0  0  0  0  0  0  0  0
    1.7509   -0.3288    2.1525 H   0  0  0  0  0  0  0  0  0  0  0  0
  1  5  1  0
  5  8  1  0
  1  2  1  0
  1  3  1  0
  1  4  1  0
  5  6  1  0
  5  7  1  0
  8  9  1  0
  8 10  1  0
  8 11  1  0
 12 16  1  0
 16 17  1  0
 12 13  1  0
 12 14  1  0
 12 15  1  0
 17 18  1  0
 17 19  1  0
 17 20  1  0
M  CHG  1   8   1
M  END
>  <PDB_ID>  (684) 
pdb2zqz

>  <RESIDUE_NAME>  (684) 
LYS   MET

>  <FRAG_NAME>  (684) 
ETAM   MSM

>  <FRAG_ATOM_NUM>  (684) 
fragi: 11  fragj: 9

>  <atom.prop.CHAIN_ID>  (684) 
A A A A A A A A A A A Z Z Z Z Z Z Z Z Z

>  <atom.prop.IS_HEAVY_ATOM>  (684) 
1 0 0 0 1 0 0 1 0 0 0 1 0 0 0 1 1 0 0 0

>  <DIFUSE_FUNC_ATOM>  (684) 
n/a

>  <FINAL_SINGLE_POINT_ENERGY>  (684) 
0

>  <NONCOV_INTER_ENERGY_QM>  (684) 
0

>  <FF_Energy>  (684) 
9.62

>  <QM_Energy>  (684) 
4.01

>  <source>  (684) 
ETAM_MSM

>  <Index>  (684) 
4157

$$$$
ETAM-pdb1tyo-A-LYS-202:MSM-pdb1tyo-A-MET-237
     RDKit          3D

 20 18  0  0  0  0  0  0  0  0999 V2000
    1.2628    0.8760   -0.0000 C   0  0  0  0  0  0  0  0  0  0  0  0
    1.0412    1.7437   -0.4246 H   0  0  0  0  0  0  0  0  0  0  0  0
    1.9706    0.4045   -0.5088 H   0  0  0  0  0  0  0  0  0  0  0  0
    1.6203    1.0608    1.0130 H   0  0  0  0  0  0  0  0  0  0  0  0
    0.0000    0.0000    0.0000 C   0  0  0  0  0  0  0  0  0  0  0  0
    0.0218   -0.5897   -0.8165 H   0  0  0  0  0  0  0  0  0  0  0  0
    0.0215   -0.5894    0.8170 H   0  0  0  0  0  0  0  0  0  0  0  0
   -1.2628    0.7933    0.0000 N   0  0  0  0  0  4  0  0  0  0  0  0
   -1.5339    0.9826   -0.9433 H   0  0  0  0  0  0  0  0  0  0  0  0
   -1.9804    0.2703    0.4573 H   0  0  0  0  0  0  0  0  0  0  0  0
   -1.1121    1.6536    0.4855 H   0  0  0  0  0  0  0  0  0  0  0  0
    0.6667    0.3965   -4.9012 C   0  0  0  0  0  0  0  0  0  0  0  0
    1.6754    0.5924   -4.8000 H   0  0  0  0  0  0  0  0  0  0  0  0
    0.4353    0.7223   -5.8543 H   0  0  0  0  0  0  0  0  0  0  0  0
    0.5297   -0.6845   -4.8716 H   0  0  0  0  0  0  0  0  0  0  0  0
   -0.2915    1.3402   -3.6580 S   0  0  0  0  0  0  0  0  0  0  0  0
   -1.9279    1.2019   -4.3381 C   0  0  0  0  0  0  0  0  0  0  0  0
   -1.9508    1.6004   -5.2591 H   0  0  0  0  0  0  0  0  0  0  0  0
   -2.1958    0.2363   -4.3931 H   0  0  0  0  0  0  0  0  0  0  0  0
   -2.5837    1.6895   -3.7550 H   0  0  0  0  0  0  0  0  0  0  0  0
  1  5  1  0
  5  8  1  0
  1  2  1  0
  1  3  1  0
  1  4  1  0
  5  6  1  0
  5  7  1  0
  8  9  1  0
  8 10  1  0
  8 11  1  0
 12 16  1  0
 16 17  1  0
 12 13  1  0
 12 14  1  0
 12 15  1  0
 17 18  1  0
 17 19  1  0
 17 20  1  0
M  CHG  1   8   1
M  END
>  <PDB_ID>  (685) 
pdb1tyo

>  <RESIDUE_NAME>  (685) 
LYS   MET

>  <FRAG_NAME>  (685) 
ETAM   MSM

>  <FRAG_ATOM_NUM>  (685) 
fragi: 11  fragj: 9

>  <atom.prop.CHAIN_ID>  (685) 
A A A A A A A A A A A Z Z Z Z Z Z Z Z Z

>  <atom.prop.IS_HEAVY_ATOM>  (685) 
1 0 0 0 1 0 0 1 0 0 0 1 0 0 0 1 1 0 0 0

>  <DIFUSE_FUNC_ATOM>  (685) 
n/a

>  <FINAL_SINGLE_POINT_ENERGY>  (685) 
0

>  <NONCOV_INTER_ENERGY_QM>  (685) 
0

>  <FF_Energy>  (685) 
-5.11

>  <QM_Energy>  (685) 
-11.47

>  <source>  (685) 
ETAM_MSM

>  <Index>  (685) 
4163

$$$$
ETAM-pdb2zv2-A-LYS-195:MSM-pdb2zv2-A-MET-266
     RDKit          3D

 20 18  0  0  0  0  0  0  0  0999 V2000
    1.2296    0.8718   -0.0000 C   0  0  0  0  0  0  0  0  0  0  0  0
    1.2023    1.4693    0.8032 H   0  0  0  0  0  0  0  0  0  0  0  0
    1.2284    1.4321   -0.8293 H   0  0  0  0  0  0  0  0  0  0  0  0
    2.1537    0.2945    0.0286 H   0  0  0  0  0  0  0  0  0  0  0  0
    0.0000    0.0000    0.0000 C   0  0  0  0  0  0  0  0  0  0  0  0
   -0.0011   -0.5732   -0.8157 H   0  0  0  0  0  0  0  0  0  0  0  0
   -0.0013   -0.5731    0.8170 H   0  0  0  0  0  0  0  0  0  0  0  0
   -1.2296    0.8471    0.0000 N   0  0  0  0  0  4  0  0  0  0  0  0
   -1.1933    1.4792    0.7723 H   0  0  0  0  0  0  0  0  0  0  0  0
   -1.2754    1.3621   -0.8547 H   0  0  0  0  0  0  0  0  0  0  0  0
   -2.0338    0.2601    0.0826 H   0  0  0  0  0  0  0  0  0  0  0  0
    2.8707    4.3563   -3.1984 C   0  0  0  0  0  0  0  0  0  0  0  0
    2.9400    5.2383   -3.7073 H   0  0  0  0  0  0  0  0  0  0  0  0
    3.2814    3.6451   -3.8056 H   0  0  0  0  0  0  0  0  0  0  0  0
    3.4621    4.4280   -2.2857 H   0  0  0  0  0  0  0  0  0  0  0  0
    1.1455    3.9637   -2.8408 S   0  0  0  0  0  0  0  0  0  0  0  0
    1.1606    2.2258   -3.0609 C   0  0  0  0  0  0  0  0  0  0  0  0
    0.9115    1.7565   -2.2040 H   0  0  0  0  0  0  0  0  0  0  0  0
    0.5024    1.9518   -3.7738 H   0  0  0  0  0  0  0  0  0  0  0  0
    2.0767    1.9107   -3.3381 H   0  0  0  0  0  0  0  0  0  0  0  0
  1  5  1  0
  5  8  1  0
  1  2  1  0
  1  3  1  0
  1  4  1  0
  5  6  1  0
  5  7  1  0
  8  9  1  0
  8 10  1  0
  8 11  1  0
 12 16  1  0
 16 17  1  0
 12 13  1  0
 12 14  1  0
 12 15  1  0
 17 18  1  0
 17 19  1  0
 17 20  1  0
M  CHG  1   8   1
M  END
>  <PDB_ID>  (686) 
pdb2zv2

>  <RESIDUE_NAME>  (686) 
LYS   MET

>  <FRAG_NAME>  (686) 
ETAM   MSM

>  <FRAG_ATOM_NUM>  (686) 
fragi: 11  fragj: 9

>  <atom.prop.CHAIN_ID>  (686) 
A A A A A A A A A A A Z Z Z Z Z Z Z Z Z

>  <atom.prop.IS_HEAVY_ATOM>  (686) 
1 0 0 0 1 0 0 1 0 0 0 1 0 0 0 1 1 0 0 0

>  <DIFUSE_FUNC_ATOM>  (686) 
n/a

>  <FINAL_SINGLE_POINT_ENERGY>  (686) 
0

>  <NONCOV_INTER_ENERGY_QM>  (686) 
0

>  <FF_Energy>  (686) 
40.13

>  <QM_Energy>  (686) 
2.85

>  <source>  (686) 
ETAM_MSM

>  <Index>  (686) 
4175

$$$$
ETAM-pdb2zv3-G-LYS-17:MSM-pdb2zv3-G-MET-13
     RDKit          3D

 20 18  0  0  0  0  0  0  0  0999 V2000
    1.2512    0.8573    0.0000 C   0  0  0  0  0  0  0  0  0  0  0  0
    1.2322    1.4420    0.8033 H   0  0  0  0  0  0  0  0  0  0  0  0
    1.2568    1.4066   -0.8287 H   0  0  0  0  0  0  0  0  0  0  0  0
    2.1462    0.2357    0.0276 H   0  0  0  0  0  0  0  0  0  0  0  0
    0.0000    0.0000    0.0000 C   0  0  0  0  0  0  0  0  0  0  0  0
    0.0053   -0.5888   -0.8161 H   0  0  0  0  0  0  0  0  0  0  0  0
    0.0052   -0.5884    0.8168 H   0  0  0  0  0  0  0  0  0  0  0  0
   -1.2512    0.8152   -0.0000 N   0  0  0  0  0  4  0  0  0  0  0  0
   -1.6005    0.8822    0.9333 H   0  0  0  0  0  0  0  0  0  0  0  0
   -1.0485    1.7286   -0.3499 H   0  0  0  0  0  0  0  0  0  0  0  0
   -1.9313    0.3738   -0.5833 H   0  0  0  0  0  0  0  0  0  0  0  0
    0.6610    2.1846    3.6243 C   0  0  0  0  0  0  0  0  0  0  0  0
    0.6097    1.1698    3.6817 H   0  0  0  0  0  0  0  0  0  0  0  0
    0.2102    2.5472    4.4616 H   0  0  0  0  0  0  0  0  0  0  0  0
    1.7078    2.4882    3.6228 H   0  0  0  0  0  0  0  0  0  0  0  0
   -0.1745    2.7805    2.1455 S   0  0  0  0  0  0  0  0  0  0  0  0
   -0.6901    4.4371    2.6624 C   0  0  0  0  0  0  0  0  0  0  0  0
    0.0195    5.0924    2.4113 H   0  0  0  0  0  0  0  0  0  0  0  0
   -1.5453    4.6707    2.2040 H   0  0  0  0  0  0  0  0  0  0  0  0
   -0.8228    4.4434    3.6515 H   0  0  0  0  0  0  0  0  0  0  0  0
  1  5  1  0
  5  8  1  0
  1  2  1  0
  1  3  1  0
  1  4  1  0
  5  6  1  0
  5  7  1  0
  8  9  1  0
  8 10  1  0
  8 11  1  0
 12 16  1  0
 16 17  1  0
 12 13  1  0
 12 14  1  0
 12 15  1  0
 17 18  1  0
 17 19  1  0
 17 20  1  0
M  CHG  1   8   1
M  END
>  <PDB_ID>  (687) 
pdb2zv3

>  <RESIDUE_NAME>  (687) 
LYS   MET

>  <FRAG_NAME>  (687) 
ETAM   MSM

>  <FRAG_ATOM_NUM>  (687) 
fragi: 11  fragj: 9

>  <atom.prop.CHAIN_ID>  (687) 
A A A A A A A A A A A Z Z Z Z Z Z Z Z Z

>  <atom.prop.IS_HEAVY_ATOM>  (687) 
1 0 0 0 1 0 0 1 0 0 0 1 0 0 0 1 1 0 0 0

>  <DIFUSE_FUNC_ATOM>  (687) 
n/a

>  <FINAL_SINGLE_POINT_ENERGY>  (687) 
0

>  <NONCOV_INTER_ENERGY_QM>  (687) 
0

>  <FF_Energy>  (687) 
1.69

>  <QM_Energy>  (687) 
-11.53

>  <source>  (687) 
ETAM_MSM

>  <Index>  (687) 
4181

$$$$
ETAM-pdb1u53-A-LYS-14:MSM-pdb1u53-A-MET-18
     RDKit          3D

 20 18  0  0  0  0  0  0  0  0999 V2000
    1.2125    0.8656    0.0000 C   0  0  0  0  0  0  0  0  0  0  0  0
    1.1380    1.5407    0.7390 H   0  0  0  0  0  0  0  0  0  0  0  0
    1.2741    1.3493   -0.8774 H   0  0  0  0  0  0  0  0  0  0  0  0
    2.1351    0.3033    0.1449 H   0  0  0  0  0  0  0  0  0  0  0  0
    0.0000    0.0000    0.0000 C   0  0  0  0  0  0  0  0  0  0  0  0
   -0.0242   -0.5573   -0.8159 H   0  0  0  0  0  0  0  0  0  0  0  0
   -0.0248   -0.5578    0.8162 H   0  0  0  0  0  0  0  0  0  0  0  0
   -1.2125    0.8992   -0.0000 N   0  0  0  0  0  4  0  0  0  0  0  0
   -1.5592    0.9707   -0.9309 H   0  0  0  0  0  0  0  0  0  0  0  0
   -1.9056    0.5028    0.5948 H   0  0  0  0  0  0  0  0  0  0  0  0
   -0.9459    1.7983    0.3362 H   0  0  0  0  0  0  0  0  0  0  0  0
    0.5095    0.1393    3.7334 C   0  0  0  0  0  0  0  0  0  0  0  0
    0.3024    1.0795    3.3135 H   0  0  0  0  0  0  0  0  0  0  0  0
    1.4018   -0.1257    3.2463 H   0  0  0  0  0  0  0  0  0  0  0  0
    0.6764    0.2330    4.8066 H   0  0  0  0  0  0  0  0  0  0  0  0
   -0.7829   -1.0140    3.2567 S   0  0  0  0  0  0  0  0  0  0  0  0
   -1.3026   -2.1096    4.4787 C   0  0  0  0  0  0  0  0  0  0  0  0
   -1.3253   -3.0626    4.1367 H   0  0  0  0  0  0  0  0  0  0  0  0
   -0.6844   -2.0905    5.2808 H   0  0  0  0  0  0  0  0  0  0  0  0
   -2.2342   -1.8827    4.8079 H   0  0  0  0  0  0  0  0  0  0  0  0
  1  5  1  0
  5  8  1  0
  1  2  1  0
  1  3  1  0
  1  4  1  0
  5  6  1  0
  5  7  1  0
  8  9  1  0
  8 10  1  0
  8 11  1  0
 12 16  1  0
 16 17  1  0
 12 13  1  0
 12 14  1  0
 12 15  1  0
 17 18  1  0
 17 19  1  0
 17 20  1  0
M  CHG  1   8   1
M  END
>  <PDB_ID>  (688) 
pdb1u53

>  <RESIDUE_NAME>  (688) 
LYS   MET

>  <FRAG_NAME>  (688) 
ETAM   MSM

>  <FRAG_ATOM_NUM>  (688) 
fragi: 11  fragj: 9

>  <atom.prop.CHAIN_ID>  (688) 
A A A A A A A A A A A Z Z Z Z Z Z Z Z Z

>  <atom.prop.IS_HEAVY_ATOM>  (688) 
1 0 0 0 1 0 0 1 0 0 0 1 0 0 0 1 1 0 0 0

>  <DIFUSE_FUNC_ATOM>  (688) 
n/a

>  <FINAL_SINGLE_POINT_ENERGY>  (688) 
0

>  <NONCOV_INTER_ENERGY_QM>  (688) 
0

>  <FF_Energy>  (688) 
-3.21

>  <QM_Energy>  (688) 
-10.98

>  <source>  (688) 
ETAM_MSM

>  <Index>  (688) 
4205

$$$$
ETAM-pdb2zza-A-LYS-39:MSM-pdb2zza-A-MET-94
     RDKit          3D

 20 18  0  0  0  0  0  0  0  0999 V2000
    1.2379    0.8838   -0.0000 C   0  0  0  0  0  0  0  0  0  0  0  0
    1.1321    1.5784    0.7101 H   0  0  0  0  0  0  0  0  0  0  0  0
    1.3136    1.3241   -0.8932 H   0  0  0  0  0  0  0  0  0  0  0  0
    2.1517    0.3221    0.1935 H   0  0  0  0  0  0  0  0  0  0  0  0
    0.0000    0.0000    0.0000 C   0  0  0  0  0  0  0  0  0  0  0  0
    0.0039   -0.5691   -0.8162 H   0  0  0  0  0  0  0  0  0  0  0  0
    0.0039   -0.5698    0.8167 H   0  0  0  0  0  0  0  0  0  0  0  0
   -1.2379    0.8466    0.0000 N   0  0  0  0  0  4  0  0  0  0  0  0
   -1.4110    1.1703    0.9278 H   0  0  0  0  0  0  0  0  0  0  0  0
   -1.1015    1.6241   -0.6108 H   0  0  0  0  0  0  0  0  0  0  0  0
   -2.0077    0.2973   -0.3175 H   0  0  0  0  0  0  0  0  0  0  0  0
    1.4847    4.4243   -0.0298 C   0  0  0  0  0  0  0  0  0  0  0  0
    2.0803    3.8266   -0.6276 H   0  0  0  0  0  0  0  0  0  0  0  0
    1.5095    3.9634    0.8960 H   0  0  0  0  0  0  0  0  0  0  0  0
    1.9677    5.3970    0.0631 H   0  0  0  0  0  0  0  0  0  0  0  0
   -0.2014    4.4848   -0.6667 S   0  0  0  0  0  0  0  0  0  0  0  0
   -1.1013    4.9084    0.7913 C   0  0  0  0  0  0  0  0  0  0  0  0
   -1.0936    5.9047    0.9286 H   0  0  0  0  0  0  0  0  0  0  0  0
   -2.0558    4.6015    0.7134 H   0  0  0  0  0  0  0  0  0  0  0  0
   -0.6882    4.4698    1.5967 H   0  0  0  0  0  0  0  0  0  0  0  0
  1  5  1  0
  5  8  1  0
  1  2  1  0
  1  3  1  0
  1  4  1  0
  5  6  1  0
  5  7  1  0
  8  9  1  0
  8 10  1  0
  8 11  1  0
 12 16  1  0
 16 17  1  0
 12 13  1  0
 12 14  1  0
 12 15  1  0
 17 18  1  0
 17 19  1  0
 17 20  1  0
M  CHG  1   8   1
M  END
>  <PDB_ID>  (689) 
pdb2zza

>  <RESIDUE_NAME>  (689) 
LYS   MET

>  <FRAG_NAME>  (689) 
ETAM   MSM

>  <FRAG_ATOM_NUM>  (689) 
fragi: 11  fragj: 9

>  <atom.prop.CHAIN_ID>  (689) 
A A A A A A A A A A A Z Z Z Z Z Z Z Z Z

>  <atom.prop.IS_HEAVY_ATOM>  (689) 
1 0 0 0 1 0 0 1 0 0 0 1 0 0 0 1 1 0 0 0

>  <DIFUSE_FUNC_ATOM>  (689) 
n/a

>  <FINAL_SINGLE_POINT_ENERGY>  (689) 
0

>  <NONCOV_INTER_ENERGY_QM>  (689) 
0

>  <FF_Energy>  (689) 
-4.03

>  <QM_Energy>  (689) 
-10.57

>  <source>  (689) 
ETAM_MSM

>  <Index>  (689) 
4215

$$$$
ETAM-pdb2zza-B-LYS-39:MSM-pdb2zza-B-MET-94
     RDKit          3D

 20 18  0  0  0  0  0  0  0  0999 V2000
    1.2304    0.8965   -0.0000 C   0  0  0  0  0  0  0  0  0  0  0  0
    1.1164    1.5904    0.7087 H   0  0  0  0  0  0  0  0  0  0  0  0
    1.3025    1.3356   -0.8937 H   0  0  0  0  0  0  0  0  0  0  0  0
    2.1490    0.3432    0.1951 H   0  0  0  0  0  0  0  0  0  0  0  0
    0.0000    0.0000    0.0000 C   0  0  0  0  0  0  0  0  0  0  0  0
    0.0095   -0.5650   -0.8160 H   0  0  0  0  0  0  0  0  0  0  0  0
    0.0085   -0.5648    0.8163 H   0  0  0  0  0  0  0  0  0  0  0  0
   -1.2304    0.8466   -0.0000 N   0  0  0  0  0  4  0  0  0  0  0  0
   -1.6066    0.8806    0.9252 H   0  0  0  0  0  0  0  0  0  0  0  0
   -0.9955    1.7689   -0.3019 H   0  0  0  0  0  0  0  0  0  0  0  0
   -1.9029    0.4500   -0.6220 H   0  0  0  0  0  0  0  0  0  0  0  0
    1.4172    4.5204   -0.0303 C   0  0  0  0  0  0  0  0  0  0  0  0
    2.0502    3.9208   -0.5750 H   0  0  0  0  0  0  0  0  0  0  0  0
    1.3831    4.0954    0.9057 H   0  0  0  0  0  0  0  0  0  0  0  0
    1.8797    5.5032    0.0613 H   0  0  0  0  0  0  0  0  0  0  0  0
   -0.2206    4.5707   -0.7746 S   0  0  0  0  0  0  0  0  0  0  0  0
   -1.1790    5.1138    0.6103 C   0  0  0  0  0  0  0  0  0  0  0  0
   -0.9703    4.5529    1.4177 H   0  0  0  0  0  0  0  0  0  0  0  0
   -0.9703    6.0740    0.8207 H   0  0  0  0  0  0  0  0  0  0  0  0
   -2.1598    5.0337    0.4060 H   0  0  0  0  0  0  0  0  0  0  0  0
  1  5  1  0
  5  8  1  0
  1  2  1  0
  1  3  1  0
  1  4  1  0
  5  6  1  0
  5  7  1  0
  8  9  1  0
  8 10  1  0
  8 11  1  0
 12 16  1  0
 16 17  1  0
 12 13  1  0
 12 14  1  0
 12 15  1  0
 17 18  1  0
 17 19  1  0
 17 20  1  0
M  CHG  1   8   1
M  END
>  <PDB_ID>  (690) 
pdb2zza

>  <RESIDUE_NAME>  (690) 
LYS   MET

>  <FRAG_NAME>  (690) 
ETAM   MSM

>  <FRAG_ATOM_NUM>  (690) 
fragi: 11  fragj: 9

>  <atom.prop.CHAIN_ID>  (690) 
A A A A A A A A A A A Z Z Z Z Z Z Z Z Z

>  <atom.prop.IS_HEAVY_ATOM>  (690) 
1 0 0 0 1 0 0 1 0 0 0 1 0 0 0 1 1 0 0 0

>  <DIFUSE_FUNC_ATOM>  (690) 
n/a

>  <FINAL_SINGLE_POINT_ENERGY>  (690) 
0

>  <NONCOV_INTER_ENERGY_QM>  (690) 
0

>  <FF_Energy>  (690) 
-4.07

>  <QM_Energy>  (690) 
-11.12

>  <source>  (690) 
ETAM_MSM

>  <Index>  (690) 
4224

$$$$
ETAM-pdb1u6r-A-LYS-365:MSM-pdb1u6r-A-MET-375
     RDKit          3D

 20 18  0  0  0  0  0  0  0  0999 V2000
    1.2517    0.8686   -0.0000 C   0  0  0  0  0  0  0  0  0  0  0  0
    1.1737    1.5338    0.7349 H   0  0  0  0  0  0  0  0  0  0  0  0
    1.3170    1.3273   -0.8792 H   0  0  0  0  0  0  0  0  0  0  0  0
    2.1487    0.2694    0.1567 H   0  0  0  0  0  0  0  0  0  0  0  0
    0.0000    0.0000    0.0000 C   0  0  0  0  0  0  0  0  0  0  0  0
    0.0125   -0.5869   -0.8162 H   0  0  0  0  0  0  0  0  0  0  0  0
    0.0127   -0.5873    0.8162 H   0  0  0  0  0  0  0  0  0  0  0  0
   -1.2517    0.8085    0.0000 N   0  0  0  0  0  4  0  0  0  0  0  0
   -1.0235    1.7704    0.1465 H   0  0  0  0  0  0  0  0  0  0  0  0
   -1.7133    0.7028   -0.8797 H   0  0  0  0  0  0  0  0  0  0  0  0
   -1.8513    0.4904    0.7340 H   0  0  0  0  0  0  0  0  0  0  0  0
   -1.6193    2.0636    3.6371 C   0  0  0  0  0  0  0  0  0  0  0  0
   -2.3560    1.4237    3.3730 H   0  0  0  0  0  0  0  0  0  0  0  0
   -1.7369    2.9078    3.0931 H   0  0  0  0  0  0  0  0  0  0  0  0
   -1.7258    2.3061    4.6945 H   0  0  0  0  0  0  0  0  0  0  0  0
   -0.0046    1.3377    3.3571 S   0  0  0  0  0  0  0  0  0  0  0  0
   -0.2752   -0.2892    4.0586 C   0  0  0  0  0  0  0  0  0  0  0  0
   -1.2475   -0.5217    4.0005 H   0  0  0  0  0  0  0  0  0  0  0  0
    0.2598   -0.9665    3.5507 H   0  0  0  0  0  0  0  0  0  0  0  0
    0.0107   -0.2925    5.0185 H   0  0  0  0  0  0  0  0  0  0  0  0
  1  5  1  0
  5  8  1  0
  1  2  1  0
  1  3  1  0
  1  4  1  0
  5  6  1  0
  5  7  1  0
  8  9  1  0
  8 10  1  0
  8 11  1  0
 12 16  1  0
 16 17  1  0
 12 13  1  0
 12 14  1  0
 12 15  1  0
 17 18  1  0
 17 19  1  0
 17 20  1  0
M  CHG  1   8   1
M  END
>  <PDB_ID>  (691) 
pdb1u6r

>  <RESIDUE_NAME>  (691) 
LYS   MET

>  <FRAG_NAME>  (691) 
ETAM   MSM

>  <FRAG_ATOM_NUM>  (691) 
fragi: 11  fragj: 9

>  <atom.prop.CHAIN_ID>  (691) 
A A A A A A A A A A A Z Z Z Z Z Z Z Z Z

>  <atom.prop.IS_HEAVY_ATOM>  (691) 
1 0 0 0 1 0 0 1 0 0 0 1 0 0 0 1 1 0 0 0

>  <DIFUSE_FUNC_ATOM>  (691) 
n/a

>  <FINAL_SINGLE_POINT_ENERGY>  (691) 
0

>  <NONCOV_INTER_ENERGY_QM>  (691) 
0

>  <FF_Energy>  (691) 
-4.1

>  <QM_Energy>  (691) 
-9.86

>  <source>  (691) 
ETAM_MSM

>  <Index>  (691) 
4233

$$$$
ETAM-pdb1u8w-D-LYS-78:MSM-pdb1u8w-D-MET-1
     RDKit          3D

 20 18  0  0  0  0  0  0  0  0999 V2000
    1.2703    0.8660    0.0000 C   0  0  0  0  0  0  0  0  0  0  0  0
    1.2225    1.4864    0.7600 H   0  0  0  0  0  0  0  0  0  0  0  0
    1.3278    1.3318   -0.8624 H   0  0  0  0  0  0  0  0  0  0  0  0
    2.1393    0.2189    0.1189 H   0  0  0  0  0  0  0  0  0  0  0  0
    0.0000    0.0000    0.0000 C   0  0  0  0  0  0  0  0  0  0  0  0
    0.0244   -0.5989   -0.8163 H   0  0  0  0  0  0  0  0  0  0  0  0
    0.0241   -0.5984    0.8167 H   0  0  0  0  0  0  0  0  0  0  0  0
   -1.2703    0.7752    0.0000 N   0  0  0  0  0  4  0  0  0  0  0  0
   -1.4782    1.0706    0.9322 H   0  0  0  0  0  0  0  0  0  0  0  0
   -1.1707    1.5758   -0.5907 H   0  0  0  0  0  0  0  0  0  0  0  0
   -2.0112    0.1973   -0.3418 H   0  0  0  0  0  0  0  0  0  0  0  0
    1.2095   -3.0561   -1.0204 C   0  0  0  0  0  0  0  0  0  0  0  0
    0.2594   -3.3981   -0.7733 H   0  0  0  0  0  0  0  0  0  0  0  0
    1.5068   -2.5306   -0.1744 H   0  0  0  0  0  0  0  0  0  0  0  0
    1.8631   -3.9216   -1.1293 H   0  0  0  0  0  0  0  0  0  0  0  0
    1.1062   -1.9106   -2.4630 S   0  0  0  0  0  0  0  0  0  0  0  0
    2.8519   -1.4867   -2.8178 C   0  0  0  0  0  0  0  0  0  0  0  0
    3.3819   -1.6061   -1.9849 H   0  0  0  0  0  0  0  0  0  0  0  0
    3.1860   -2.0941   -3.5306 H   0  0  0  0  0  0  0  0  0  0  0  0
    2.8914   -0.5403   -3.1222 H   0  0  0  0  0  0  0  0  0  0  0  0
  1  5  1  0
  5  8  1  0
  1  2  1  0
  1  3  1  0
  1  4  1  0
  5  6  1  0
  5  7  1  0
  8  9  1  0
  8 10  1  0
  8 11  1  0
 12 16  1  0
 16 17  1  0
 12 13  1  0
 12 14  1  0
 12 15  1  0
 17 18  1  0
 17 19  1  0
 17 20  1  0
M  CHG  1   8   1
M  END
>  <PDB_ID>  (692) 
pdb1u8w

>  <RESIDUE_NAME>  (692) 
LYS   MET

>  <FRAG_NAME>  (692) 
ETAM   MSM

>  <FRAG_ATOM_NUM>  (692) 
fragi: 11  fragj: 9

>  <atom.prop.CHAIN_ID>  (692) 
A A A A A A A A A A A Z Z Z Z Z Z Z Z Z

>  <atom.prop.IS_HEAVY_ATOM>  (692) 
1 0 0 0 1 0 0 1 0 0 0 1 0 0 0 1 1 0 0 0

>  <DIFUSE_FUNC_ATOM>  (692) 
n/a

>  <FINAL_SINGLE_POINT_ENERGY>  (692) 
0

>  <NONCOV_INTER_ENERGY_QM>  (692) 
0

>  <FF_Energy>  (692) 
2.84

>  <QM_Energy>  (692) 
-6.31

>  <source>  (692) 
ETAM_MSM

>  <Index>  (692) 
4235

$$$$
ETAM-pdb2zy3-D-LYS-105:MSM-pdb2zy3-A-MET-69
     RDKit          3D

 20 18  0  0  0  0  0  0  0  0999 V2000
    1.2189    0.8637   -0.0000 C   0  0  0  0  0  0  0  0  0  0  0  0
    2.0073    0.3173    0.2609 H   0  0  0  0  0  0  0  0  0  0  0  0
    1.0896    1.6134    0.6387 H   0  0  0  0  0  0  0  0  0  0  0  0
    1.3944    1.2764   -0.9934 H   0  0  0  0  0  0  0  0  0  0  0  0
    0.0000    0.0000    0.0000 C   0  0  0  0  0  0  0  0  0  0  0  0
   -0.0033   -0.5763   -0.8164 H   0  0  0  0  0  0  0  0  0  0  0  0
   -0.0042   -0.5770    0.8156 H   0  0  0  0  0  0  0  0  0  0  0  0
   -1.2189    0.8450    0.0000 N   0  0  0  0  0  4  0  0  0  0  0  0
   -0.9570    1.8088   -0.0485 H   0  0  0  0  0  0  0  0  0  0  0  0
   -1.7849    0.6140   -0.7926 H   0  0  0  0  0  0  0  0  0  0  0  0
   -1.7389    0.6820    0.8391 H   0  0  0  0  0  0  0  0  0  0  0  0
    2.9376    1.2652    4.4869 C   0  0  0  0  0  0  0  0  0  0  0  0
    2.8862    1.9312    3.7012 H   0  0  0  0  0  0  0  0  0  0  0  0
    3.7057    1.6174    5.0779 H   0  0  0  0  0  0  0  0  0  0  0  0
    2.0089    1.3308    5.0538 H   0  0  0  0  0  0  0  0  0  0  0  0
    3.2849   -0.3839    3.9043 S   0  0  0  0  0  0  0  0  0  0  0  0
    2.4211   -0.3592    2.2853 C   0  0  0  0  0  0  0  0  0  0  0  0
    1.4769   -0.0888    2.4377 H   0  0  0  0  0  0  0  0  0  0  0  0
    2.8804    0.2950    1.6950 H   0  0  0  0  0  0  0  0  0  0  0  0
    2.4637   -1.2714    1.8931 H   0  0  0  0  0  0  0  0  0  0  0  0
  1  5  1  0
  5  8  1  0
  1  2  1  0
  1  3  1  0
  1  4  1  0
  5  6  1  0
  5  7  1  0
  8  9  1  0
  8 10  1  0
  8 11  1  0
 12 16  1  0
 16 17  1  0
 12 13  1  0
 12 14  1  0
 12 15  1  0
 17 18  1  0
 17 19  1  0
 17 20  1  0
M  CHG  1   8   1
M  END
>  <PDB_ID>  (693) 
pdb2zy3

>  <RESIDUE_NAME>  (693) 
LYS   MET

>  <FRAG_NAME>  (693) 
ETAM   MSM

>  <FRAG_ATOM_NUM>  (693) 
fragi: 11  fragj: 9

>  <atom.prop.CHAIN_ID>  (693) 
A A A A A A A A A A A Z Z Z Z Z Z Z Z Z

>  <atom.prop.IS_HEAVY_ATOM>  (693) 
1 0 0 0 1 0 0 1 0 0 0 1 0 0 0 1 1 0 0 0

>  <DIFUSE_FUNC_ATOM>  (693) 
n/a

>  <FINAL_SINGLE_POINT_ENERGY>  (693) 
0

>  <NONCOV_INTER_ENERGY_QM>  (693) 
0

>  <FF_Energy>  (693) 
20.85

>  <QM_Energy>  (693) 
6.76

>  <source>  (693) 
ETAM_MSM

>  <Index>  (693) 
4252

$$$$
ETAM-pdb1ub4-B-LYS-303:MSM-pdb1ub4-B-MET-209
     RDKit          3D

 20 18  0  0  0  0  0  0  0  0999 V2000
    1.2405    0.8779    0.0000 C   0  0  0  0  0  0  0  0  0  0  0  0
    1.1676    1.5271    0.7412 H   0  0  0  0  0  0  0  0  0  0  0  0
    1.3047    1.3313   -0.8744 H   0  0  0  0  0  0  0  0  0  0  0  0
    2.1242    0.2579    0.1508 H   0  0  0  0  0  0  0  0  0  0  0  0
    0.0000    0.0000    0.0000 C   0  0  0  0  0  0  0  0  0  0  0  0
    0.0126   -0.5805   -0.8157 H   0  0  0  0  0  0  0  0  0  0  0  0
    0.0127   -0.5799    0.8162 H   0  0  0  0  0  0  0  0  0  0  0  0
   -1.2405    0.8195   -0.0000 N   0  0  0  0  0  4  0  0  0  0  0  0
   -1.5619    0.9359   -0.9395 H   0  0  0  0  0  0  0  0  0  0  0  0
   -1.9445    0.3573    0.5392 H   0  0  0  0  0  0  0  0  0  0  0  0
   -1.0471    1.7147    0.4010 H   0  0  0  0  0  0  0  0  0  0  0  0
   -4.3697   -0.5170    1.9027 C   0  0  0  0  0  0  0  0  0  0  0  0
   -4.0280   -0.5722    2.8498 H   0  0  0  0  0  0  0  0  0  0  0  0
   -3.8757   -1.2037    1.3529 H   0  0  0  0  0  0  0  0  0  0  0  0
   -5.4352   -0.7463    1.8919 H   0  0  0  0  0  0  0  0  0  0  0  0
   -4.1090    1.1445    1.2279 S   0  0  0  0  0  0  0  0  0  0  0  0
   -4.8274    0.9664   -0.2633 C   0  0  0  0  0  0  0  0  0  0  0  0
   -5.7640    1.3780   -0.3071 H   0  0  0  0  0  0  0  0  0  0  0  0
   -4.2942    1.4069   -1.0180 H   0  0  0  0  0  0  0  0  0  0  0  0
   -4.9416   -0.0140   -0.5369 H   0  0  0  0  0  0  0  0  0  0  0  0
  1  5  1  0
  5  8  1  0
  1  2  1  0
  1  3  1  0
  1  4  1  0
  5  6  1  0
  5  7  1  0
  8  9  1  0
  8 10  1  0
  8 11  1  0
 12 16  1  0
 16 17  1  0
 12 13  1  0
 12 14  1  0
 12 15  1  0
 17 18  1  0
 17 19  1  0
 17 20  1  0
M  CHG  1   8   1
M  END
>  <PDB_ID>  (694) 
pdb1ub4

>  <RESIDUE_NAME>  (694) 
LYS   MET

>  <FRAG_NAME>  (694) 
ETAM   MSM

>  <FRAG_ATOM_NUM>  (694) 
fragi: 11  fragj: 9

>  <atom.prop.CHAIN_ID>  (694) 
A A A A A A A A A A A Z Z Z Z Z Z Z Z Z

>  <atom.prop.IS_HEAVY_ATOM>  (694) 
1 0 0 0 1 0 0 1 0 0 0 1 0 0 0 1 1 0 0 0

>  <DIFUSE_FUNC_ATOM>  (694) 
n/a

>  <FINAL_SINGLE_POINT_ENERGY>  (694) 
0

>  <NONCOV_INTER_ENERGY_QM>  (694) 
0

>  <FF_Energy>  (694) 
-3.91

>  <QM_Energy>  (694) 
-12.0

>  <source>  (694) 
ETAM_MSM

>  <Index>  (694) 
4255

$$$$
ETAM-pdb1uax-B-LYS-101:MSM-pdb1uax-B-MET-1
     RDKit          3D

 20 18  0  0  0  0  0  0  0  0999 V2000
    1.2504    0.8657    0.0000 C   0  0  0  0  0  0  0  0  0  0  0  0
    1.2591    1.4101    0.8334 H   0  0  0  0  0  0  0  0  0  0  0  0
    1.2252    1.4589   -0.7984 H   0  0  0  0  0  0  0  0  0  0  0  0
    2.1574    0.2621   -0.0360 H   0  0  0  0  0  0  0  0  0  0  0  0
    0.0000    0.0000    0.0000 C   0  0  0  0  0  0  0  0  0  0  0  0
    0.0087   -0.5853   -0.8163 H   0  0  0  0  0  0  0  0  0  0  0  0
    0.0077   -0.5853    0.8167 H   0  0  0  0  0  0  0  0  0  0  0  0
   -1.2504    0.8165    0.0000 N   0  0  0  0  0  4  0  0  0  0  0  0
   -1.0330    1.7520    0.2745 H   0  0  0  0  0  0  0  0  0  0  0  0
   -1.6428    0.8173   -0.9184 H   0  0  0  0  0  0  0  0  0  0  0  0
   -1.9029    0.4200    0.6442 H   0  0  0  0  0  0  0  0  0  0  0  0
    0.0800   -3.3545   -3.2979 C   0  0  0  0  0  0  0  0  0  0  0  0
   -0.0211   -3.9894   -2.4932 H   0  0  0  0  0  0  0  0  0  0  0  0
    0.9913   -3.5980   -3.7122 H   0  0  0  0  0  0  0  0  0  0  0  0
   -0.6996   -3.5936   -4.0212 H   0  0  0  0  0  0  0  0  0  0  0  0
    0.0517   -1.6465   -2.7728 S   0  0  0  0  0  0  0  0  0  0  0  0
    1.0388   -0.8952   -4.0539 C   0  0  0  0  0  0  0  0  0  0  0  0
    0.5887   -1.0120   -4.9416 H   0  0  0  0  0  0  0  0  0  0  0  0
    1.1492    0.0836   -3.8674 H   0  0  0  0  0  0  0  0  0  0  0  0
    1.9422   -1.3273   -4.0843 H   0  0  0  0  0  0  0  0  0  0  0  0
  1  5  1  0
  5  8  1  0
  1  2  1  0
  1  3  1  0
  1  4  1  0
  5  6  1  0
  5  7  1  0
  8  9  1  0
  8 10  1  0
  8 11  1  0
 12 16  1  0
 16 17  1  0
 12 13  1  0
 12 14  1  0
 12 15  1  0
 17 18  1  0
 17 19  1  0
 17 20  1  0
M  CHG  1   8   1
M  END
>  <PDB_ID>  (695) 
pdb1uax

>  <RESIDUE_NAME>  (695) 
LYS   MET

>  <FRAG_NAME>  (695) 
ETAM   MSM

>  <FRAG_ATOM_NUM>  (695) 
fragi: 11  fragj: 9

>  <atom.prop.CHAIN_ID>  (695) 
A A A A A A A A A A A Z Z Z Z Z Z Z Z Z

>  <atom.prop.IS_HEAVY_ATOM>  (695) 
1 0 0 0 1 0 0 1 0 0 0 1 0 0 0 1 1 0 0 0

>  <DIFUSE_FUNC_ATOM>  (695) 
n/a

>  <FINAL_SINGLE_POINT_ENERGY>  (695) 
0

>  <NONCOV_INTER_ENERGY_QM>  (695) 
0

>  <FF_Energy>  (695) 
8.74

>  <QM_Energy>  (695) 
-7.21

>  <source>  (695) 
ETAM_MSM

>  <Index>  (695) 
4261

$$$$
ETAM-pdb2zus-D-LYS-322:MSM-pdb2zus-D-MET-450
     RDKit          3D

 20 18  0  0  0  0  0  0  0  0999 V2000
    1.2994    0.8253    0.0000 C   0  0  0  0  0  0  0  0  0  0  0  0
    1.4333    1.2007    0.8989 H   0  0  0  0  0  0  0  0  0  0  0  0
    1.2297    1.5218   -0.6904 H   0  0  0  0  0  0  0  0  0  0  0  0
    2.1454    0.1805   -0.2381 H   0  0  0  0  0  0  0  0  0  0  0  0
    0.0000    0.0000    0.0000 C   0  0  0  0  0  0  0  0  0  0  0  0
    0.0126   -0.6161   -0.8162 H   0  0  0  0  0  0  0  0  0  0  0  0
    0.0125   -0.6159    0.8166 H   0  0  0  0  0  0  0  0  0  0  0  0
   -1.2994    0.7630   -0.0000 N   0  0  0  0  0  4  0  0  0  0  0  0
   -1.6042    0.8797    0.9412 H   0  0  0  0  0  0  0  0  0  0  0  0
   -1.1510    1.6529   -0.4244 H   0  0  0  0  0  0  0  0  0  0  0  0
   -1.9764    0.2470   -0.5178 H   0  0  0  0  0  0  0  0  0  0  0  0
    0.4811   -4.3612    0.8239 C   0  0  0  0  0  0  0  0  0  0  0  0
    0.1714   -4.9836    0.0878 H   0  0  0  0  0  0  0  0  0  0  0  0
    0.6324   -4.9214    1.6527 H   0  0  0  0  0  0  0  0  0  0  0  0
    1.4356   -3.9279    0.5248 H   0  0  0  0  0  0  0  0  0  0  0  0
   -0.7291   -3.0601    1.1293 S   0  0  0  0  0  0  0  0  0  0  0  0
   -0.0550   -2.3406    2.6585 C   0  0  0  0  0  0  0  0  0  0  0  0
    0.1075   -1.3681    2.5126 H   0  0  0  0  0  0  0  0  0  0  0  0
   -0.7149   -2.4704    3.3929 H   0  0  0  0  0  0  0  0  0  0  0  0
    0.8004   -2.8013    2.8812 H   0  0  0  0  0  0  0  0  0  0  0  0
  1  5  1  0
  5  8  1  0
  1  2  1  0
  1  3  1  0
  1  4  1  0
  5  6  1  0
  5  7  1  0
  8  9  1  0
  8 10  1  0
  8 11  1  0
 12 16  1  0
 16 17  1  0
 12 13  1  0
 12 14  1  0
 12 15  1  0
 17 18  1  0
 17 19  1  0
 17 20  1  0
M  CHG  1   8   1
M  END
>  <PDB_ID>  (696) 
pdb2zus

>  <RESIDUE_NAME>  (696) 
LYS   MET

>  <FRAG_NAME>  (696) 
ETAM   MSM

>  <FRAG_ATOM_NUM>  (696) 
fragi: 11  fragj: 9

>  <atom.prop.CHAIN_ID>  (696) 
A A A A A A A A A A A Z Z Z Z Z Z Z Z Z

>  <atom.prop.IS_HEAVY_ATOM>  (696) 
1 0 0 0 1 0 0 1 0 0 0 1 0 0 0 1 1 0 0 0

>  <DIFUSE_FUNC_ATOM>  (696) 
n/a

>  <FINAL_SINGLE_POINT_ENERGY>  (696) 
0

>  <NONCOV_INTER_ENERGY_QM>  (696) 
0

>  <FF_Energy>  (696) 
1.13

>  <QM_Energy>  (696) 
-5.23

>  <source>  (696) 
ETAM_MSM

>  <Index>  (696) 
4265

$$$$
ETAM-pdb1ucy-K-LYS-36:MSM-pdb1ucy-K-MET-84
     RDKit          3D

 20 18  0  0  0  0  0  0  0  0999 V2000
    1.2835    0.8379   -0.0000 C   0  0  0  0  0  0  0  0  0  0  0  0
    1.6916    0.7917    0.9126 H   0  0  0  0  0  0  0  0  0  0  0  0
    1.0421    1.7856   -0.2089 H   0  0  0  0  0  0  0  0  0  0  0  0
    2.0239    0.5019   -0.7259 H   0  0  0  0  0  0  0  0  0  0  0  0
    0.0000    0.0000    0.0000 C   0  0  0  0  0  0  0  0  0  0  0  0
    0.0036   -0.5995   -0.8160 H   0  0  0  0  0  0  0  0  0  0  0  0
    0.0027   -0.5998    0.8169 H   0  0  0  0  0  0  0  0  0  0  0  0
   -1.2835    0.8009    0.0000 N   0  0  0  0  0  4  0  0  0  0  0  0
   -1.9196    0.3856   -0.6431 H   0  0  0  0  0  0  0  0  0  0  0  0
   -1.6671    0.7898    0.9187 H   0  0  0  0  0  0  0  0  0  0  0  0
   -1.0765    1.7352   -0.2758 H   0  0  0  0  0  0  0  0  0  0  0  0
   -3.6259    2.1466   -2.0902 C   0  0  0  0  0  0  0  0  0  0  0  0
   -2.8563    1.4799   -2.1250 H   0  0  0  0  0  0  0  0  0  0  0  0
   -3.6153    2.6480   -2.9777 H   0  0  0  0  0  0  0  0  0  0  0  0
   -4.5640    1.5982   -2.0043 H   0  0  0  0  0  0  0  0  0  0  0  0
   -3.4074    3.2959   -0.7091 S   0  0  0  0  0  0  0  0  0  0  0  0
   -3.3585    4.8620   -1.5686 C   0  0  0  0  0  0  0  0  0  0  0  0
   -4.1993    4.9826   -2.1000 H   0  0  0  0  0  0  0  0  0  0  0  0
   -3.2776    5.6088   -0.9054 H   0  0  0  0  0  0  0  0  0  0  0  0
   -2.5713    4.8831   -2.1870 H   0  0  0  0  0  0  0  0  0  0  0  0
  1  5  1  0
  5  8  1  0
  1  2  1  0
  1  3  1  0
  1  4  1  0
  5  6  1  0
  5  7  1  0
  8  9  1  0
  8 10  1  0
  8 11  1  0
 12 16  1  0
 16 17  1  0
 12 13  1  0
 12 14  1  0
 12 15  1  0
 17 18  1  0
 17 19  1  0
 17 20  1  0
M  CHG  1   8   1
M  END
>  <PDB_ID>  (697) 
pdb1ucy

>  <RESIDUE_NAME>  (697) 
LYS   MET

>  <FRAG_NAME>  (697) 
ETAM   MSM

>  <FRAG_ATOM_NUM>  (697) 
fragi: 11  fragj: 9

>  <atom.prop.CHAIN_ID>  (697) 
A A A A A A A A A A A Z Z Z Z Z Z Z Z Z

>  <atom.prop.IS_HEAVY_ATOM>  (697) 
1 0 0 0 1 0 0 1 0 0 0 1 0 0 0 1 1 0 0 0

>  <DIFUSE_FUNC_ATOM>  (697) 
n/a

>  <FINAL_SINGLE_POINT_ENERGY>  (697) 
0

>  <NONCOV_INTER_ENERGY_QM>  (697) 
0

>  <FF_Energy>  (697) 
-3.34

>  <QM_Energy>  (697) 
-10.22

>  <source>  (697) 
ETAM_MSM

>  <Index>  (697) 
4267

$$$$
ETAM-pdb1ucy-N-LYS-109:MSM-pdb1ucy-N-MET-84
     RDKit          3D

 20 18  0  0  0  0  0  0  0  0999 V2000
    1.2733    0.8551    0.0000 C   0  0  0  0  0  0  0  0  0  0  0  0
    1.3975    1.2296    0.9124 H   0  0  0  0  0  0  0  0  0  0  0  0
    1.1573    1.5875   -0.6627 H   0  0  0  0  0  0  0  0  0  0  0  0
    2.1537    0.2702   -0.2662 H   0  0  0  0  0  0  0  0  0  0  0  0
    0.0000    0.0000    0.0000 C   0  0  0  0  0  0  0  0  0  0  0  0
    0.0150   -0.5978   -0.8166 H   0  0  0  0  0  0  0  0  0  0  0  0
    0.0142   -0.5976    0.8167 H   0  0  0  0  0  0  0  0  0  0  0  0
   -1.2733    0.7893   -0.0000 N   0  0  0  0  0  4  0  0  0  0  0  0
   -1.0617    1.7503   -0.1687 H   0  0  0  0  0  0  0  0  0  0  0  0
   -1.8719    0.4432   -0.7193 H   0  0  0  0  0  0  0  0  0  0  0  0
   -1.7182    0.6909    0.8876 H   0  0  0  0  0  0  0  0  0  0  0  0
   -3.2022   -1.6273    2.3266 C   0  0  0  0  0  0  0  0  0  0  0  0
   -3.9184   -2.3258    2.1432 H   0  0  0  0  0  0  0  0  0  0  0  0
   -3.1148   -1.5554    3.3375 H   0  0  0  0  0  0  0  0  0  0  0  0
   -2.2555   -1.9748    1.9129 H   0  0  0  0  0  0  0  0  0  0  0  0
   -3.6694   -0.0338    1.6135 S   0  0  0  0  0  0  0  0  0  0  0  0
   -2.6951    1.0310    2.6537 C   0  0  0  0  0  0  0  0  0  0  0  0
   -1.7881    0.6288    2.8001 H   0  0  0  0  0  0  0  0  0  0  0  0
   -2.5878    1.9287    2.2197 H   0  0  0  0  0  0  0  0  0  0  0  0
   -3.1480    1.1495    3.5410 H   0  0  0  0  0  0  0  0  0  0  0  0
  1  5  1  0
  5  8  1  0
  1  2  1  0
  1  3  1  0
  1  4  1  0
  5  6  1  0
  5  7  1  0
  8  9  1  0
  8 10  1  0
  8 11  1  0
 12 16  1  0
 16 17  1  0
 12 13  1  0
 12 14  1  0
 12 15  1  0
 17 18  1  0
 17 19  1  0
 17 20  1  0
M  CHG  1   8   1
M  END
>  <PDB_ID>  (698) 
pdb1ucy

>  <RESIDUE_NAME>  (698) 
LYS   MET

>  <FRAG_NAME>  (698) 
ETAM   MSM

>  <FRAG_ATOM_NUM>  (698) 
fragi: 11  fragj: 9

>  <atom.prop.CHAIN_ID>  (698) 
A A A A A A A A A A A Z Z Z Z Z Z Z Z Z

>  <atom.prop.IS_HEAVY_ATOM>  (698) 
1 0 0 0 1 0 0 1 0 0 0 1 0 0 0 1 1 0 0 0

>  <DIFUSE_FUNC_ATOM>  (698) 
n/a

>  <FINAL_SINGLE_POINT_ENERGY>  (698) 
0

>  <NONCOV_INTER_ENERGY_QM>  (698) 
0

>  <FF_Energy>  (698) 
-0.67

>  <QM_Energy>  (698) 
-7.64

>  <source>  (698) 
ETAM_MSM

>  <Index>  (698) 
4268

$$$$
ETAM-pdb1ub2-A-LYS-408:MSM-pdb1ub2-A-MET-249
     RDKit          3D

 20 18  0  0  0  0  0  0  0  0999 V2000
    1.2353    0.8848    0.0000 C   0  0  0  0  0  0  0  0  0  0  0  0
    1.2025    1.4731    0.8083 H   0  0  0  0  0  0  0  0  0  0  0  0
    1.2185    1.4518   -0.8244 H   0  0  0  0  0  0  0  0  0  0  0  0
    2.1626    0.3120    0.0171 H   0  0  0  0  0  0  0  0  0  0  0  0
    0.0000    0.0000    0.0000 C   0  0  0  0  0  0  0  0  0  0  0  0
    0.0058   -0.5706   -0.8162 H   0  0  0  0  0  0  0  0  0  0  0  0
    0.0055   -0.5705    0.8166 H   0  0  0  0  0  0  0  0  0  0  0  0
   -1.2353    0.8423   -0.0000 N   0  0  0  0  0  4  0  0  0  0  0  0
   -1.2225    1.4438    0.7969 H   0  0  0  0  0  0  0  0  0  0  0  0
   -1.2595    1.3886   -0.8351 H   0  0  0  0  0  0  0  0  0  0  0  0
   -2.0374    0.2486    0.0380 H   0  0  0  0  0  0  0  0  0  0  0  0
   -0.3053    1.6404   -5.2152 C   0  0  0  0  0  0  0  0  0  0  0  0
   -0.3573    0.6226   -5.2979 H   0  0  0  0  0  0  0  0  0  0  0  0
    0.2956    1.9547   -5.9806 H   0  0  0  0  0  0  0  0  0  0  0  0
   -1.3034    2.0512   -5.3668 H   0  0  0  0  0  0  0  0  0  0  0  0
    0.3842    2.1194   -3.6223 S   0  0  0  0  0  0  0  0  0  0  0  0
    1.8564    1.1681   -3.5824 C   0  0  0  0  0  0  0  0  0  0  0  0
    1.7316    0.3012   -4.0806 H   0  0  0  0  0  0  0  0  0  0  0  0
    2.6164    1.6724   -4.0097 H   0  0  0  0  0  0  0  0  0  0  0  0
    2.1141    0.9536   -2.6322 H   0  0  0  0  0  0  0  0  0  0  0  0
  1  5  1  0
  5  8  1  0
  1  2  1  0
  1  3  1  0
  1  4  1  0
  5  6  1  0
  5  7  1  0
  8  9  1  0
  8 10  1  0
  8 11  1  0
 12 16  1  0
 16 17  1  0
 12 13  1  0
 12 14  1  0
 12 15  1  0
 17 18  1  0
 17 19  1  0
 17 20  1  0
M  CHG  1   8   1
M  END
>  <PDB_ID>  (699) 
pdb1ub2

>  <RESIDUE_NAME>  (699) 
LYS   MET

>  <FRAG_NAME>  (699) 
ETAM   MSM

>  <FRAG_ATOM_NUM>  (699) 
fragi: 11  fragj: 9

>  <atom.prop.CHAIN_ID>  (699) 
A A A A A A A A A A A Z Z Z Z Z Z Z Z Z

>  <atom.prop.IS_HEAVY_ATOM>  (699) 
1 0 0 0 1 0 0 1 0 0 0 1 0 0 0 1 1 0 0 0

>  <DIFUSE_FUNC_ATOM>  (699) 
n/a

>  <FINAL_SINGLE_POINT_ENERGY>  (699) 
0

>  <NONCOV_INTER_ENERGY_QM>  (699) 
0

>  <FF_Energy>  (699) 
-3.61

>  <QM_Energy>  (699) 
-9.68

>  <source>  (699) 
ETAM_MSM

>  <Index>  (699) 
4270

$$$$
ETAM-pdb1uou-A-LYS-235:MSM-pdb1uou-A-MET-273
     RDKit          3D

 20 18  0  0  0  0  0  0  0  0999 V2000
    1.2238    0.8532   -0.0000 C   0  0  0  0  0  0  0  0  0  0  0  0
    2.0316    0.2664   -0.0551 H   0  0  0  0  0  0  0  0  0  0  0  0
    1.2520    1.3839    0.8458 H   0  0  0  0  0  0  0  0  0  0  0  0
    1.2323    1.5404   -0.8460 H   0  0  0  0  0  0  0  0  0  0  0  0
    0.0000    0.0000    0.0000 C   0  0  0  0  0  0  0  0  0  0  0  0
    0.0119   -0.5957   -0.8166 H   0  0  0  0  0  0  0  0  0  0  0  0
    0.0117   -0.5961    0.8168 H   0  0  0  0  0  0  0  0  0  0  0  0
   -1.2238    0.7965    0.0000 N   0  0  0  0  0  4  0  0  0  0  0  0
   -1.2807    1.3426   -0.8407 H   0  0  0  0  0  0  0  0  0  0  0  0
   -2.0271    0.1953    0.0502 H   0  0  0  0  0  0  0  0  0  0  0  0
   -1.2324    1.4161    0.7900 H   0  0  0  0  0  0  0  0  0  0  0  0
   -1.0922    3.8791    0.8132 C   0  0  0  0  0  0  0  0  0  0  0  0
   -1.1939    4.6162    0.0873 H   0  0  0  0  0  0  0  0  0  0  0  0
   -0.4591    3.1857    0.3668 H   0  0  0  0  0  0  0  0  0  0  0  0
   -0.5647    4.3160    1.6611 H   0  0  0  0  0  0  0  0  0  0  0  0
   -2.7138    3.1167    1.1707 S   0  0  0  0  0  0  0  0  0  0  0  0
   -2.7539    2.9564    2.9924 C   0  0  0  0  0  0  0  0  0  0  0  0
   -2.8882    3.8600    3.3873 H   0  0  0  0  0  0  0  0  0  0  0  0
   -3.5059    2.3545    3.2412 H   0  0  0  0  0  0  0  0  0  0  0  0
   -1.8882    2.5713    3.2958 H   0  0  0  0  0  0  0  0  0  0  0  0
  1  5  1  0
  5  8  1  0
  1  2  1  0
  1  3  1  0
  1  4  1  0
  5  6  1  0
  5  7  1  0
  8  9  1  0
  8 10  1  0
  8 11  1  0
 12 16  1  0
 16 17  1  0
 12 13  1  0
 12 14  1  0
 12 15  1  0
 17 18  1  0
 17 19  1  0
 17 20  1  0
M  CHG  1   8   1
M  END
>  <PDB_ID>  (700) 
pdb1uou

>  <RESIDUE_NAME>  (700) 
LYS   MET

>  <FRAG_NAME>  (700) 
ETAM   MSM

>  <FRAG_ATOM_NUM>  (700) 
fragi: 11  fragj: 9

>  <atom.prop.CHAIN_ID>  (700) 
A A A A A A A A A A A Z Z Z Z Z Z Z Z Z

>  <atom.prop.IS_HEAVY_ATOM>  (700) 
1 0 0 0 1 0 0 1 0 0 0 1 0 0 0 1 1 0 0 0

>  <DIFUSE_FUNC_ATOM>  (700) 
n/a

>  <FINAL_SINGLE_POINT_ENERGY>  (700) 
0

>  <NONCOV_INTER_ENERGY_QM>  (700) 
0

>  <FF_Energy>  (700) 
-0.91

>  <QM_Energy>  (700) 
-10.23

>  <source>  (700) 
ETAM_MSM

>  <Index>  (700) 
4295

$$$$
ETAM-pdb1umn-A-LYS-61:MSM-pdb1umn-K-MET-56
     RDKit          3D

 20 18  0  0  0  0  0  0  0  0999 V2000
    1.2439    0.8896   -0.0000 C   0  0  0  0  0  0  0  0  0  0  0  0
    1.2197    1.4687    0.8066 H   0  0  0  0  0  0  0  0  0  0  0  0
    1.2410    1.4385   -0.8267 H   0  0  0  0  0  0  0  0  0  0  0  0
    2.1597    0.2991    0.0231 H   0  0  0  0  0  0  0  0  0  0  0  0
    0.0000    0.0000    0.0000 C   0  0  0  0  0  0  0  0  0  0  0  0
    0.0125   -0.5729   -0.8162 H   0  0  0  0  0  0  0  0  0  0  0  0
    0.0120   -0.5720    0.8160 H   0  0  0  0  0  0  0  0  0  0  0  0
   -1.2439    0.8312   -0.0000 N   0  0  0  0  0  4  0  0  0  0  0  0
   -2.0304    0.2445   -0.1851 H   0  0  0  0  0  0  0  0  0  0  0  0
   -1.3484    1.2640    0.8931 H   0  0  0  0  0  0  0  0  0  0  0  0
   -1.1705    1.5308   -0.7080 H   0  0  0  0  0  0  0  0  0  0  0  0
   -0.9783   -3.2442    2.2286 C   0  0  0  0  0  0  0  0  0  0  0  0
   -0.0203   -3.1182    1.8395 H   0  0  0  0  0  0  0  0  0  0  0  0
   -1.5473   -3.4790    1.3883 H   0  0  0  0  0  0  0  0  0  0  0  0
   -0.9645   -4.1159    2.8829 H   0  0  0  0  0  0  0  0  0  0  0  0
   -1.5669   -1.6748    2.9638 S   0  0  0  0  0  0  0  0  0  0  0  0
   -0.4256   -1.4213    4.1806 C   0  0  0  0  0  0  0  0  0  0  0  0
   -0.4983   -0.4910    4.5920 H   0  0  0  0  0  0  0  0  0  0  0  0
   -0.5235   -2.0855    4.9480 H   0  0  0  0  0  0  0  0  0  0  0  0
    0.5316   -1.5124    3.8397 H   0  0  0  0  0  0  0  0  0  0  0  0
  1  5  1  0
  5  8  1  0
  1  2  1  0
  1  3  1  0
  1  4  1  0
  5  6  1  0
  5  7  1  0
  8  9  1  0
  8 10  1  0
  8 11  1  0
 12 16  1  0
 16 17  1  0
 12 13  1  0
 12 14  1  0
 12 15  1  0
 17 18  1  0
 17 19  1  0
 17 20  1  0
M  CHG  1   8   1
M  END
>  <PDB_ID>  (701) 
pdb1umn

>  <RESIDUE_NAME>  (701) 
LYS   MET

>  <FRAG_NAME>  (701) 
ETAM   MSM

>  <FRAG_ATOM_NUM>  (701) 
fragi: 11  fragj: 9

>  <atom.prop.CHAIN_ID>  (701) 
A A A A A A A A A A A Z Z Z Z Z Z Z Z Z

>  <atom.prop.IS_HEAVY_ATOM>  (701) 
1 0 0 0 1 0 0 1 0 0 0 1 0 0 0 1 1 0 0 0

>  <DIFUSE_FUNC_ATOM>  (701) 
n/a

>  <FINAL_SINGLE_POINT_ENERGY>  (701) 
0

>  <NONCOV_INTER_ENERGY_QM>  (701) 
0

>  <FF_Energy>  (701) 
-4.33

>  <QM_Energy>  (701) 
-9.81

>  <source>  (701) 
ETAM_MSM

>  <Index>  (701) 
4300

$$$$
ETAM-pdb1urq-C-LYS-83:MSM-pdb1urq-A-MET-1104
     RDKit          3D

 20 18  0  0  0  0  0  0  0  0999 V2000
    1.2337    0.8930    0.0000 C   0  0  0  0  0  0  0  0  0  0  0  0
    1.2168    1.4554    0.8165 H   0  0  0  0  0  0  0  0  0  0  0  0
    1.2164    1.4554   -0.8166 H   0  0  0  0  0  0  0  0  0  0  0  0
    2.1446    0.2945    0.0006 H   0  0  0  0  0  0  0  0  0  0  0  0
    0.0000    0.0000    0.0000 C   0  0  0  0  0  0  0  0  0  0  0  0
    0.0087   -0.5671   -0.8159 H   0  0  0  0  0  0  0  0  0  0  0  0
    0.0077   -0.5668    0.8161 H   0  0  0  0  0  0  0  0  0  0  0  0
   -1.2337    0.8441   -0.0000 N   0  0  0  0  0  4  0  0  0  0  0  0
   -1.9999    0.3062    0.3463 H   0  0  0  0  0  0  0  0  0  0  0  0
   -1.0873    1.6391    0.5864 H   0  0  0  0  0  0  0  0  0  0  0  0
   -1.4263    1.1445   -0.9332 H   0  0  0  0  0  0  0  0  0  0  0  0
   -2.8541    2.6292    2.4313 C   0  0  0  0  0  0  0  0  0  0  0  0
   -2.8140    2.3637    3.4112 H   0  0  0  0  0  0  0  0  0  0  0  0
   -3.0133    1.7762    1.9016 H   0  0  0  0  0  0  0  0  0  0  0  0
   -3.6770    3.3255    2.2697 H   0  0  0  0  0  0  0  0  0  0  0  0
   -1.2262    3.3675    1.9295 S   0  0  0  0  0  0  0  0  0  0  0  0
   -1.6208    4.1474    0.5393 C   0  0  0  0  0  0  0  0  0  0  0  0
   -1.9693    5.1033    0.6896 H   0  0  0  0  0  0  0  0  0  0  0  0
   -0.8314    4.2487   -0.1124 H   0  0  0  0  0  0  0  0  0  0  0  0
   -2.3571    3.6746   -0.0016 H   0  0  0  0  0  0  0  0  0  0  0  0
  1  5  1  0
  5  8  1  0
  1  2  1  0
  1  3  1  0
  1  4  1  0
  5  6  1  0
  5  7  1  0
  8  9  1  0
  8 10  1  0
  8 11  1  0
 12 16  1  0
 16 17  1  0
 12 13  1  0
 12 14  1  0
 12 15  1  0
 17 18  1  0
 17 19  1  0
 17 20  1  0
M  CHG  1   8   1
M  END
>  <PDB_ID>  (702) 
pdb1urq

>  <RESIDUE_NAME>  (702) 
LYS   MET

>  <FRAG_NAME>  (702) 
ETAM   MSM

>  <FRAG_ATOM_NUM>  (702) 
fragi: 11  fragj: 9

>  <atom.prop.CHAIN_ID>  (702) 
A A A A A A A A A A A Z Z Z Z Z Z Z Z Z

>  <atom.prop.IS_HEAVY_ATOM>  (702) 
1 0 0 0 1 0 0 1 0 0 0 1 0 0 0 1 1 0 0 0

>  <DIFUSE_FUNC_ATOM>  (702) 
n/a

>  <FINAL_SINGLE_POINT_ENERGY>  (702) 
0

>  <NONCOV_INTER_ENERGY_QM>  (702) 
0

>  <FF_Energy>  (702) 
-3.38

>  <QM_Energy>  (702) 
-13.4

>  <source>  (702) 
ETAM_MSM

>  <Index>  (702) 
4307

$$$$
ETAM-pdb1umn-B-LYS-61:MSM-pdb1umn-J-MET-56
     RDKit          3D

 20 18  0  0  0  0  0  0  0  0999 V2000
    1.2523    0.8552   -0.0000 C   0  0  0  0  0  0  0  0  0  0  0  0
    1.2819    1.3873    0.8402 H   0  0  0  0  0  0  0  0  0  0  0  0
    1.2337    1.4587   -0.7910 H   0  0  0  0  0  0  0  0  0  0  0  0
    2.1587    0.2521   -0.0527 H   0  0  0  0  0  0  0  0  0  0  0  0
    0.0000    0.0000    0.0000 C   0  0  0  0  0  0  0  0  0  0  0  0
   -0.0048   -0.5816   -0.8164 H   0  0  0  0  0  0  0  0  0  0  0  0
   -0.0041   -0.5815    0.8163 H   0  0  0  0  0  0  0  0  0  0  0  0
   -1.2523    0.8385   -0.0000 N   0  0  0  0  0  4  0  0  0  0  0  0
   -1.8336    0.5490   -0.7557 H   0  0  0  0  0  0  0  0  0  0  0  0
   -1.7269    0.7080    0.8664 H   0  0  0  0  0  0  0  0  0  0  0  0
   -0.9995    1.7957   -0.1108 H   0  0  0  0  0  0  0  0  0  0  0  0
   -0.8210   -3.6029    1.4778 C   0  0  0  0  0  0  0  0  0  0  0  0
    0.1095   -3.4293    1.0615 H   0  0  0  0  0  0  0  0  0  0  0  0
   -1.4485   -3.7089    0.6626 H   0  0  0  0  0  0  0  0  0  0  0  0
   -0.7848   -4.5556    2.0063 H   0  0  0  0  0  0  0  0  0  0  0  0
   -1.3365   -2.1735    2.4900 S   0  0  0  0  0  0  0  0  0  0  0  0
   -0.0483   -2.0529    3.5957 C   0  0  0  0  0  0  0  0  0  0  0  0
    0.3500   -1.1176    3.6146 H   0  0  0  0  0  0  0  0  0  0  0  0
   -0.3409   -2.2677    4.5452 H   0  0  0  0  0  0  0  0  0  0  0  0
    0.7097   -2.6922    3.3686 H   0  0  0  0  0  0  0  0  0  0  0  0
  1  5  1  0
  5  8  1  0
  1  2  1  0
  1  3  1  0
  1  4  1  0
  5  6  1  0
  5  7  1  0
  8  9  1  0
  8 10  1  0
  8 11  1  0
 12 16  1  0
 16 17  1  0
 12 13  1  0
 12 14  1  0
 12 15  1  0
 17 18  1  0
 17 19  1  0
 17 20  1  0
M  CHG  1   8   1
M  END
>  <PDB_ID>  (703) 
pdb1umn

>  <RESIDUE_NAME>  (703) 
LYS   MET

>  <FRAG_NAME>  (703) 
ETAM   MSM

>  <FRAG_ATOM_NUM>  (703) 
fragi: 11  fragj: 9

>  <atom.prop.CHAIN_ID>  (703) 
A A A A A A A A A A A Z Z Z Z Z Z Z Z Z

>  <atom.prop.IS_HEAVY_ATOM>  (703) 
1 0 0 0 1 0 0 1 0 0 0 1 0 0 0 1 1 0 0 0

>  <DIFUSE_FUNC_ATOM>  (703) 
n/a

>  <FINAL_SINGLE_POINT_ENERGY>  (703) 
0

>  <NONCOV_INTER_ENERGY_QM>  (703) 
0

>  <FF_Energy>  (703) 
-3.65

>  <QM_Energy>  (703) 
-9.78

>  <source>  (703) 
ETAM_MSM

>  <Index>  (703) 
4309

$$$$
ETAM-pdb1uum-A-LYS-379:MSM-pdb1uum-A-MET-78
     RDKit          3D

 20 18  0  0  0  0  0  0  0  0999 V2000
    1.2443    0.8704    0.0000 C   0  0  0  0  0  0  0  0  0  0  0  0
    2.0475    0.2788   -0.0125 H   0  0  0  0  0  0  0  0  0  0  0  0
    1.2446    1.4271    0.8272 H   0  0  0  0  0  0  0  0  0  0  0  0
    1.2834    1.5311   -0.8660 H   0  0  0  0  0  0  0  0  0  0  0  0
    0.0000    0.0000    0.0000 C   0  0  0  0  0  0  0  0  0  0  0  0
    0.0142   -0.5862   -0.8164 H   0  0  0  0  0  0  0  0  0  0  0  0
    0.0133   -0.5868    0.8167 H   0  0  0  0  0  0  0  0  0  0  0  0
   -1.2443    0.8085    0.0000 N   0  0  0  0  0  4  0  0  0  0  0  0
   -1.5992    0.8745    0.9329 H   0  0  0  0  0  0  0  0  0  0  0  0
   -1.0461    1.7259   -0.3470 H   0  0  0  0  0  0  0  0  0  0  0  0
   -1.9270    0.3712   -0.5858 H   0  0  0  0  0  0  0  0  0  0  0  0
   -3.6741    0.3088   -4.0042 C   0  0  0  0  0  0  0  0  0  0  0  0
   -4.1712   -0.3570   -3.4190 H   0  0  0  0  0  0  0  0  0  0  0  0
   -3.3943   -0.1897   -4.8453 H   0  0  0  0  0  0  0  0  0  0  0  0
   -4.3562    1.1128   -4.2807 H   0  0  0  0  0  0  0  0  0  0  0  0
   -2.2223    0.9595   -3.1369 S   0  0  0  0  0  0  0  0  0  0  0  0
   -1.2708    1.5736   -4.5138 C   0  0  0  0  0  0  0  0  0  0  0  0
   -1.0783    2.5487   -4.3861 H   0  0  0  0  0  0  0  0  0  0  0  0
   -0.4045    1.0740   -4.5783 H   0  0  0  0  0  0  0  0  0  0  0  0
   -1.7852    1.4499   -5.3651 H   0  0  0  0  0  0  0  0  0  0  0  0
  1  5  1  0
  5  8  1  0
  1  2  1  0
  1  3  1  0
  1  4  1  0
  5  6  1  0
  5  7  1  0
  8  9  1  0
  8 10  1  0
  8 11  1  0
 12 16  1  0
 16 17  1  0
 12 13  1  0
 12 14  1  0
 12 15  1  0
 17 18  1  0
 17 19  1  0
 17 20  1  0
M  CHG  1   8   1
M  END
>  <PDB_ID>  (704) 
pdb1uum

>  <RESIDUE_NAME>  (704) 
LYS   MET

>  <FRAG_NAME>  (704) 
ETAM   MSM

>  <FRAG_ATOM_NUM>  (704) 
fragi: 11  fragj: 9

>  <atom.prop.CHAIN_ID>  (704) 
A A A A A A A A A A A Z Z Z Z Z Z Z Z Z

>  <atom.prop.IS_HEAVY_ATOM>  (704) 
1 0 0 0 1 0 0 1 0 0 0 1 0 0 0 1 1 0 0 0

>  <DIFUSE_FUNC_ATOM>  (704) 
n/a

>  <FINAL_SINGLE_POINT_ENERGY>  (704) 
0

>  <NONCOV_INTER_ENERGY_QM>  (704) 
0

>  <FF_Energy>  (704) 
-5.73

>  <QM_Energy>  (704) 
-13.87

>  <source>  (704) 
ETAM_MSM

>  <Index>  (704) 
4314

$$$$
ETAM-pdb1uum-B-LYS-379:MSM-pdb1uum-B-MET-78
     RDKit          3D

 20 18  0  0  0  0  0  0  0  0999 V2000
    1.2441    0.8718   -0.0000 C   0  0  0  0  0  0  0  0  0  0  0  0
    2.0483    0.2805    0.0135 H   0  0  0  0  0  0  0  0  0  0  0  0
    1.2321    1.4452    0.8168 H   0  0  0  0  0  0  0  0  0  0  0  0
    1.2998    1.5155   -0.8778 H   0  0  0  0  0  0  0  0  0  0  0  0
    0.0000    0.0000    0.0000 C   0  0  0  0  0  0  0  0  0  0  0  0
    0.0157   -0.5869   -0.8158 H   0  0  0  0  0  0  0  0  0  0  0  0
    0.0154   -0.5871    0.8160 H   0  0  0  0  0  0  0  0  0  0  0  0
   -1.2441    0.8041    0.0000 N   0  0  0  0  0  4  0  0  0  0  0  0
   -1.0414    1.7340   -0.3094 H   0  0  0  0  0  0  0  0  0  0  0  0
   -1.9122    0.3875   -0.6176 H   0  0  0  0  0  0  0  0  0  0  0  0
   -1.6223    0.8371    0.9266 H   0  0  0  0  0  0  0  0  0  0  0  0
   -3.5644    0.1900   -4.0776 C   0  0  0  0  0  0  0  0  0  0  0  0
   -4.0649   -0.4675   -3.4868 H   0  0  0  0  0  0  0  0  0  0  0  0
   -3.2594   -0.3250   -4.8989 H   0  0  0  0  0  0  0  0  0  0  0  0
   -4.2500    0.9783   -4.3884 H   0  0  0  0  0  0  0  0  0  0  0  0
   -2.1425    0.8836   -3.1963 S   0  0  0  0  0  0  0  0  0  0  0  0
   -1.1268    1.3853   -4.5705 C   0  0  0  0  0  0  0  0  0  0  0  0
   -1.2947    0.7848   -5.3555 H   0  0  0  0  0  0  0  0  0  0  0  0
   -1.3438    2.3295   -4.8275 H   0  0  0  0  0  0  0  0  0  0  0  0
   -0.1586    1.3294   -4.3173 H   0  0  0  0  0  0  0  0  0  0  0  0
  1  5  1  0
  5  8  1  0
  1  2  1  0
  1  3  1  0
  1  4  1  0
  5  6  1  0
  5  7  1  0
  8  9  1  0
  8 10  1  0
  8 11  1  0
 12 16  1  0
 16 17  1  0
 12 13  1  0
 12 14  1  0
 12 15  1  0
 17 18  1  0
 17 19  1  0
 17 20  1  0
M  CHG  1   8   1
M  END
>  <PDB_ID>  (705) 
pdb1uum

>  <RESIDUE_NAME>  (705) 
LYS   MET

>  <FRAG_NAME>  (705) 
ETAM   MSM

>  <FRAG_ATOM_NUM>  (705) 
fragi: 11  fragj: 9

>  <atom.prop.CHAIN_ID>  (705) 
A A A A A A A A A A A Z Z Z Z Z Z Z Z Z

>  <atom.prop.IS_HEAVY_ATOM>  (705) 
1 0 0 0 1 0 0 1 0 0 0 1 0 0 0 1 1 0 0 0

>  <DIFUSE_FUNC_ATOM>  (705) 
n/a

>  <FINAL_SINGLE_POINT_ENERGY>  (705) 
0

>  <NONCOV_INTER_ENERGY_QM>  (705) 
0

>  <FF_Energy>  (705) 
-5.78

>  <QM_Energy>  (705) 
-13.95

>  <source>  (705) 
ETAM_MSM

>  <Index>  (705) 
4315

$$$$
ETAM-pdb1umn-E-LYS-61:MSM-pdb1umn-C-MET-56
     RDKit          3D

 20 18  0  0  0  0  0  0  0  0999 V2000
    1.2388    0.8679   -0.0000 C   0  0  0  0  0  0  0  0  0  0  0  0
    1.1740    1.5277    0.7487 H   0  0  0  0  0  0  0  0  0  0  0  0
    1.2953    1.3551   -0.8714 H   0  0  0  0  0  0  0  0  0  0  0  0
    2.1578    0.2964    0.1301 H   0  0  0  0  0  0  0  0  0  0  0  0
    0.0000    0.0000    0.0000 C   0  0  0  0  0  0  0  0  0  0  0  0
   -0.0038   -0.5727   -0.8163 H   0  0  0  0  0  0  0  0  0  0  0  0
   -0.0043   -0.5730    0.8161 H   0  0  0  0  0  0  0  0  0  0  0  0
   -1.2388    0.8507   -0.0000 N   0  0  0  0  0  4  0  0  0  0  0  0
   -0.9981    1.7738    0.2892 H   0  0  0  0  0  0  0  0  0  0  0  0
   -1.6179    0.8712   -0.9218 H   0  0  0  0  0  0  0  0  0  0  0  0
   -1.9018    0.4572    0.6327 H   0  0  0  0  0  0  0  0  0  0  0  0
   -1.2258   -3.0877    2.2718 C   0  0  0  0  0  0  0  0  0  0  0  0
   -0.2368   -3.0481    1.9508 H   0  0  0  0  0  0  0  0  0  0  0  0
   -1.7437   -3.3838    1.4193 H   0  0  0  0  0  0  0  0  0  0  0  0
   -1.3096   -3.8817    3.0138 H   0  0  0  0  0  0  0  0  0  0  0  0
   -1.7810   -1.4255    2.7945 S   0  0  0  0  0  0  0  0  0  0  0  0
   -0.7597   -1.1136    4.1380 C   0  0  0  0  0  0  0  0  0  0  0  0
   -1.2345   -0.5676    4.8495 H   0  0  0  0  0  0  0  0  0  0  0  0
   -0.4471   -1.9729    4.5772 H   0  0  0  0  0  0  0  0  0  0  0  0
    0.0688   -0.5967    3.8652 H   0  0  0  0  0  0  0  0  0  0  0  0
  1  5  1  0
  5  8  1  0
  1  2  1  0
  1  3  1  0
  1  4  1  0
  5  6  1  0
  5  7  1  0
  8  9  1  0
  8 10  1  0
  8 11  1  0
 12 16  1  0
 16 17  1  0
 12 13  1  0
 12 14  1  0
 12 15  1  0
 17 18  1  0
 17 19  1  0
 17 20  1  0
M  CHG  1   8   1
M  END
>  <PDB_ID>  (706) 
pdb1umn

>  <RESIDUE_NAME>  (706) 
LYS   MET

>  <FRAG_NAME>  (706) 
ETAM   MSM

>  <FRAG_ATOM_NUM>  (706) 
fragi: 11  fragj: 9

>  <atom.prop.CHAIN_ID>  (706) 
A A A A A A A A A A A Z Z Z Z Z Z Z Z Z

>  <atom.prop.IS_HEAVY_ATOM>  (706) 
1 0 0 0 1 0 0 1 0 0 0 1 0 0 0 1 1 0 0 0

>  <DIFUSE_FUNC_ATOM>  (706) 
n/a

>  <FINAL_SINGLE_POINT_ENERGY>  (706) 
0

>  <NONCOV_INTER_ENERGY_QM>  (706) 
0

>  <FF_Energy>  (706) 
-4.81

>  <QM_Energy>  (706) 
-12.6

>  <source>  (706) 
ETAM_MSM

>  <Index>  (706) 
4320

$$$$
ETAM-pdb1umn-F-LYS-61:MSM-pdb1umn-B-MET-56
     RDKit          3D

 20 18  0  0  0  0  0  0  0  0999 V2000
    1.2658    0.8458    0.0000 C   0  0  0  0  0  0  0  0  0  0  0  0
    1.2347    1.4687    0.7770 H   0  0  0  0  0  0  0  0  0  0  0  0
    1.3061    1.3620   -0.8517 H   0  0  0  0  0  0  0  0  0  0  0  0
    2.1687    0.2404    0.0797 H   0  0  0  0  0  0  0  0  0  0  0  0
    0.0000    0.0000    0.0000 C   0  0  0  0  0  0  0  0  0  0  0  0
   -0.0012   -0.5906   -0.8166 H   0  0  0  0  0  0  0  0  0  0  0  0
   -0.0014   -0.5909    0.8161 H   0  0  0  0  0  0  0  0  0  0  0  0
   -1.2658    0.8210    0.0000 N   0  0  0  0  0  4  0  0  0  0  0  0
   -1.7155    0.7180   -0.8835 H   0  0  0  0  0  0  0  0  0  0  0  0
   -1.8617    0.4932    0.7281 H   0  0  0  0  0  0  0  0  0  0  0  0
   -1.0291    1.7766    0.1540 H   0  0  0  0  0  0  0  0  0  0  0  0
   -0.9722   -3.4217    2.0349 C   0  0  0  0  0  0  0  0  0  0  0  0
   -0.0405   -3.2986    1.6202 H   0  0  0  0  0  0  0  0  0  0  0  0
   -1.5858   -3.6792    1.2522 H   0  0  0  0  0  0  0  0  0  0  0  0
   -0.9352   -4.2518    2.7403 H   0  0  0  0  0  0  0  0  0  0  0  0
   -1.5389   -1.8405    2.7805 S   0  0  0  0  0  0  0  0  0  0  0  0
   -0.3253   -1.5495    3.9635 C   0  0  0  0  0  0  0  0  0  0  0  0
   -0.6892   -1.6581    4.9039 H   0  0  0  0  0  0  0  0  0  0  0  0
    0.4527   -2.1924    3.8635 H   0  0  0  0  0  0  0  0  0  0  0  0
    0.0475   -0.6096    3.8896 H   0  0  0  0  0  0  0  0  0  0  0  0
  1  5  1  0
  5  8  1  0
  1  2  1  0
  1  3  1  0
  1  4  1  0
  5  6  1  0
  5  7  1  0
  8  9  1  0
  8 10  1  0
  8 11  1  0
 12 16  1  0
 16 17  1  0
 12 13  1  0
 12 14  1  0
 12 15  1  0
 17 18  1  0
 17 19  1  0
 17 20  1  0
M  CHG  1   8   1
M  END
>  <PDB_ID>  (707) 
pdb1umn

>  <RESIDUE_NAME>  (707) 
LYS   MET

>  <FRAG_NAME>  (707) 
ETAM   MSM

>  <FRAG_ATOM_NUM>  (707) 
fragi: 11  fragj: 9

>  <atom.prop.CHAIN_ID>  (707) 
A A A A A A A A A A A Z Z Z Z Z Z Z Z Z

>  <atom.prop.IS_HEAVY_ATOM>  (707) 
1 0 0 0 1 0 0 1 0 0 0 1 0 0 0 1 1 0 0 0

>  <DIFUSE_FUNC_ATOM>  (707) 
n/a

>  <FINAL_SINGLE_POINT_ENERGY>  (707) 
0

>  <NONCOV_INTER_ENERGY_QM>  (707) 
0

>  <FF_Energy>  (707) 
-4.36

>  <QM_Energy>  (707) 
-11.2

>  <source>  (707) 
ETAM_MSM

>  <Index>  (707) 
4321

$$$$
ETAM-pdb1uxz-A-LYS-129:MSM-pdb1uxz-A-MET-1
     RDKit          3D

 20 18  0  0  0  0  0  0  0  0999 V2000
    1.2457    0.8642    0.0000 C   0  0  0  0  0  0  0  0  0  0  0  0
    1.4432    1.1457    0.9334 H   0  0  0  0  0  0  0  0  0  0  0  0
    1.0865    1.6596   -0.5754 H   0  0  0  0  0  0  0  0  0  0  0  0
    2.1097    0.3245   -0.3877 H   0  0  0  0  0  0  0  0  0  0  0  0
    0.0000    0.0000    0.0000 C   0  0  0  0  0  0  0  0  0  0  0  0
    0.0006   -0.5791   -0.8158 H   0  0  0  0  0  0  0  0  0  0  0  0
   -0.0002   -0.5792    0.8159 H   0  0  0  0  0  0  0  0  0  0  0  0
   -1.2457    0.8357   -0.0000 N   0  0  0  0  0  4  0  0  0  0  0  0
   -1.4306    1.1453    0.9304 H   0  0  0  0  0  0  0  0  0  0  0  0
   -1.1098    1.6219   -0.5988 H   0  0  0  0  0  0  0  0  0  0  0  0
   -2.0079    0.2842   -0.3318 H   0  0  0  0  0  0  0  0  0  0  0  0
    2.0320    0.5353    4.5518 C   0  0  0  0  0  0  0  0  0  0  0  0
    2.5387   -0.0673    5.2035 H   0  0  0  0  0  0  0  0  0  0  0  0
    1.6854    1.3219    5.1066 H   0  0  0  0  0  0  0  0  0  0  0  0
    2.7422    0.9199    3.8198 H   0  0  0  0  0  0  0  0  0  0  0  0
    0.6672   -0.3574    3.7780 S   0  0  0  0  0  0  0  0  0  0  0  0
    0.0949   -1.4046    5.1527 C   0  0  0  0  0  0  0  0  0  0  0  0
    0.5078   -2.3072    5.0624 H   0  0  0  0  0  0  0  0  0  0  0  0
    0.3716   -0.9849    6.0128 H   0  0  0  0  0  0  0  0  0  0  0  0
   -0.8978   -1.4760    5.1098 H   0  0  0  0  0  0  0  0  0  0  0  0
  1  5  1  0
  5  8  1  0
  1  2  1  0
  1  3  1  0
  1  4  1  0
  5  6  1  0
  5  7  1  0
  8  9  1  0
  8 10  1  0
  8 11  1  0
 12 16  1  0
 16 17  1  0
 12 13  1  0
 12 14  1  0
 12 15  1  0
 17 18  1  0
 17 19  1  0
 17 20  1  0
M  CHG  1   8   1
M  END
>  <PDB_ID>  (708) 
pdb1uxz

>  <RESIDUE_NAME>  (708) 
LYS   MET

>  <FRAG_NAME>  (708) 
ETAM   MSM

>  <FRAG_ATOM_NUM>  (708) 
fragi: 11  fragj: 9

>  <atom.prop.CHAIN_ID>  (708) 
A A A A A A A A A A A Z Z Z Z Z Z Z Z Z

>  <atom.prop.IS_HEAVY_ATOM>  (708) 
1 0 0 0 1 0 0 1 0 0 0 1 0 0 0 1 1 0 0 0

>  <DIFUSE_FUNC_ATOM>  (708) 
n/a

>  <FINAL_SINGLE_POINT_ENERGY>  (708) 
0

>  <NONCOV_INTER_ENERGY_QM>  (708) 
0

>  <FF_Energy>  (708) 
-4.46

>  <QM_Energy>  (708) 
-9.85

>  <source>  (708) 
ETAM_MSM

>  <Index>  (708) 
4322

$$$$
ETAM-pdb1v5e-A-LYS-155:MSM-pdb1v5e-A-MET-151
     RDKit          3D

 20 18  0  0  0  0  0  0  0  0999 V2000
    1.2429    0.8745   -0.0000 C   0  0  0  0  0  0  0  0  0  0  0  0
    2.0390    0.2924   -0.0999 H   0  0  0  0  0  0  0  0  0  0  0  0
    1.2759    1.3757    0.8544 H   0  0  0  0  0  0  0  0  0  0  0  0
    1.2127    1.5818   -0.8288 H   0  0  0  0  0  0  0  0  0  0  0  0
    0.0000    0.0000    0.0000 C   0  0  0  0  0  0  0  0  0  0  0  0
    0.0115   -0.5817   -0.8160 H   0  0  0  0  0  0  0  0  0  0  0  0
    0.0111   -0.5824    0.8165 H   0  0  0  0  0  0  0  0  0  0  0  0
   -1.2429    0.8184   -0.0000 N   0  0  0  0  0  4  0  0  0  0  0  0
   -1.3249    1.2973   -0.8731 H   0  0  0  0  0  0  0  0  0  0  0  0
   -2.0335    0.2207    0.1300 H   0  0  0  0  0  0  0  0  0  0  0  0
   -1.2014    1.4846    0.7440 H   0  0  0  0  0  0  0  0  0  0  0  0
    2.3337   -3.2883   -2.3398 C   0  0  0  0  0  0  0  0  0  0  0  0
    2.2598   -3.8845   -3.1747 H   0  0  0  0  0  0  0  0  0  0  0  0
    2.6355   -3.9209   -1.5868 H   0  0  0  0  0  0  0  0  0  0  0  0
    3.1242   -2.5577   -2.5114 H   0  0  0  0  0  0  0  0  0  0  0  0
    0.7316   -2.5447   -1.9434 S   0  0  0  0  0  0  0  0  0  0  0  0
   -0.3815   -3.8798   -2.4103 C   0  0  0  0  0  0  0  0  0  0  0  0
   -0.2038   -4.1431   -3.3584 H   0  0  0  0  0  0  0  0  0  0  0  0
   -0.2282   -4.6648   -1.8103 H   0  0  0  0  0  0  0  0  0  0  0  0
   -1.3274   -3.5692   -2.3206 H   0  0  0  0  0  0  0  0  0  0  0  0
  1  5  1  0
  5  8  1  0
  1  2  1  0
  1  3  1  0
  1  4  1  0
  5  6  1  0
  5  7  1  0
  8  9  1  0
  8 10  1  0
  8 11  1  0
 12 16  1  0
 16 17  1  0
 12 13  1  0
 12 14  1  0
 12 15  1  0
 17 18  1  0
 17 19  1  0
 17 20  1  0
M  CHG  1   8   1
M  END
>  <PDB_ID>  (709) 
pdb1v5e

>  <RESIDUE_NAME>  (709) 
LYS   MET

>  <FRAG_NAME>  (709) 
ETAM   MSM

>  <FRAG_ATOM_NUM>  (709) 
fragi: 11  fragj: 9

>  <atom.prop.CHAIN_ID>  (709) 
A A A A A A A A A A A Z Z Z Z Z Z Z Z Z

>  <atom.prop.IS_HEAVY_ATOM>  (709) 
1 0 0 0 1 0 0 1 0 0 0 1 0 0 0 1 1 0 0 0

>  <DIFUSE_FUNC_ATOM>  (709) 
n/a

>  <FINAL_SINGLE_POINT_ENERGY>  (709) 
0

>  <NONCOV_INTER_ENERGY_QM>  (709) 
0

>  <FF_Energy>  (709) 
1.45

>  <QM_Energy>  (709) 
-7.18

>  <source>  (709) 
ETAM_MSM

>  <Index>  (709) 
4348

$$$$
ETAM-pdb1v76-B-LYS-87:MSM-pdb1v76-B-MET-77
     RDKit          3D

 20 18  0  0  0  0  0  0  0  0999 V2000
    1.2423    0.8722    0.0000 C   0  0  0  0  0  0  0  0  0  0  0  0
    1.3249    1.3090    0.8905 H   0  0  0  0  0  0  0  0  0  0  0  0
    1.1493    1.5588   -0.7141 H   0  0  0  0  0  0  0  0  0  0  0  0
    2.1417    0.2862   -0.1890 H   0  0  0  0  0  0  0  0  0  0  0  0
    0.0000    0.0000    0.0000 C   0  0  0  0  0  0  0  0  0  0  0  0
    0.0070   -0.5796   -0.8160 H   0  0  0  0  0  0  0  0  0  0  0  0
    0.0071   -0.5795    0.8164 H   0  0  0  0  0  0  0  0  0  0  0  0
   -1.2423    0.8265    0.0000 N   0  0  0  0  0  4  0  0  0  0  0  0
   -1.9963    0.2875    0.3726 H   0  0  0  0  0  0  0  0  0  0  0  0
   -1.0977    1.6385    0.5638 H   0  0  0  0  0  0  0  0  0  0  0  0
   -1.4557    1.1011   -0.9366 H   0  0  0  0  0  0  0  0  0  0  0  0
   -0.1049   -3.2157   -1.4180 C   0  0  0  0  0  0  0  0  0  0  0  0
   -0.8447   -3.9281   -1.2565 H   0  0  0  0  0  0  0  0  0  0  0  0
   -0.3611   -2.4489   -0.7635 H   0  0  0  0  0  0  0  0  0  0  0  0
    0.8408   -3.6385   -1.0794 H   0  0  0  0  0  0  0  0  0  0  0  0
   -0.1490   -2.6295   -3.1342 S   0  0  0  0  0  0  0  0  0  0  0  0
    0.8589   -1.1867   -3.0598 C   0  0  0  0  0  0  0  0  0  0  0  0
    0.7686   -0.6513   -3.9066 H   0  0  0  0  0  0  0  0  0  0  0  0
    0.5849   -0.6069   -2.2850 H   0  0  0  0  0  0  0  0  0  0  0  0
    1.8261   -1.4399   -2.9437 H   0  0  0  0  0  0  0  0  0  0  0  0
  1  5  1  0
  5  8  1  0
  1  2  1  0
  1  3  1  0
  1  4  1  0
  5  6  1  0
  5  7  1  0
  8  9  1  0
  8 10  1  0
  8 11  1  0
 12 16  1  0
 16 17  1  0
 12 13  1  0
 12 14  1  0
 12 15  1  0
 17 18  1  0
 17 19  1  0
 17 20  1  0
M  CHG  1   8   1
M  END
>  <PDB_ID>  (710) 
pdb1v76

>  <RESIDUE_NAME>  (710) 
LYS   MET

>  <FRAG_NAME>  (710) 
ETAM   MSM

>  <FRAG_ATOM_NUM>  (710) 
fragi: 11  fragj: 9

>  <atom.prop.CHAIN_ID>  (710) 
A A A A A A A A A A A Z Z Z Z Z Z Z Z Z

>  <atom.prop.IS_HEAVY_ATOM>  (710) 
1 0 0 0 1 0 0 1 0 0 0 1 0 0 0 1 1 0 0 0

>  <DIFUSE_FUNC_ATOM>  (710) 
n/a

>  <FINAL_SINGLE_POINT_ENERGY>  (710) 
0

>  <NONCOV_INTER_ENERGY_QM>  (710) 
0

>  <FF_Energy>  (710) 
20.24

>  <QM_Energy>  (710) 
4.05

>  <source>  (710) 
ETAM_MSM

>  <Index>  (710) 
4350

$$$$
ETAM-pdb1v6a-B-LYS-57:MSM-pdb1v6a-B-MET-54
     RDKit          3D

 20 18  0  0  0  0  0  0  0  0999 V2000
    1.2469    0.8676    0.0000 C   0  0  0  0  0  0  0  0  0  0  0  0
    1.1611    1.5518    0.7214 H   0  0  0  0  0  0  0  0  0  0  0  0
    1.3236    1.3174   -0.8867 H   0  0  0  0  0  0  0  0  0  0  0  0
    2.1536    0.2889    0.1764 H   0  0  0  0  0  0  0  0  0  0  0  0
    0.0000    0.0000    0.0000 C   0  0  0  0  0  0  0  0  0  0  0  0
    0.0026   -0.5790   -0.8166 H   0  0  0  0  0  0  0  0  0  0  0  0
    0.0021   -0.5793    0.8164 H   0  0  0  0  0  0  0  0  0  0  0  0
   -1.2469    0.8333   -0.0000 N   0  0  0  0  0  4  0  0  0  0  0  0
   -1.1525    1.5601   -0.6770 H   0  0  0  0  0  0  0  0  0  0  0  0
   -2.0254    0.2540   -0.2301 H   0  0  0  0  0  0  0  0  0  0  0  0
   -1.3745    1.2288    0.9069 H   0  0  0  0  0  0  0  0  0  0  0  0
   -1.1264   -1.7542   -4.2404 C   0  0  0  0  0  0  0  0  0  0  0  0
   -0.9600   -1.6778   -5.2505 H   0  0  0  0  0  0  0  0  0  0  0  0
   -1.9435   -2.3677   -4.1443 H   0  0  0  0  0  0  0  0  0  0  0  0
   -0.2674   -2.2479   -3.7859 H   0  0  0  0  0  0  0  0  0  0  0  0
   -1.4818   -0.1094   -3.5302 S   0  0  0  0  0  0  0  0  0  0  0  0
   -0.4394    0.9720   -4.5630 C   0  0  0  0  0  0  0  0  0  0  0  0
   -0.2782    1.8239   -4.0723 H   0  0  0  0  0  0  0  0  0  0  0  0
    0.4235    0.5090   -4.7409 H   0  0  0  0  0  0  0  0  0  0  0  0
   -0.9157    1.1527   -5.4192 H   0  0  0  0  0  0  0  0  0  0  0  0
  1  5  1  0
  5  8  1  0
  1  2  1  0
  1  3  1  0
  1  4  1  0
  5  6  1  0
  5  7  1  0
  8  9  1  0
  8 10  1  0
  8 11  1  0
 12 16  1  0
 16 17  1  0
 12 13  1  0
 12 14  1  0
 12 15  1  0
 17 18  1  0
 17 19  1  0
 17 20  1  0
M  CHG  1   8   1
M  END
>  <PDB_ID>  (711) 
pdb1v6a

>  <RESIDUE_NAME>  (711) 
LYS   MET

>  <FRAG_NAME>  (711) 
ETAM   MSM

>  <FRAG_ATOM_NUM>  (711) 
fragi: 11  fragj: 9

>  <atom.prop.CHAIN_ID>  (711) 
A A A A A A A A A A A Z Z Z Z Z Z Z Z Z

>  <atom.prop.IS_HEAVY_ATOM>  (711) 
1 0 0 0 1 0 0 1 0 0 0 1 0 0 0 1 1 0 0 0

>  <DIFUSE_FUNC_ATOM>  (711) 
n/a

>  <FINAL_SINGLE_POINT_ENERGY>  (711) 
0

>  <NONCOV_INTER_ENERGY_QM>  (711) 
0

>  <FF_Energy>  (711) 
-5.22

>  <QM_Energy>  (711) 
-11.98

>  <source>  (711) 
ETAM_MSM

>  <Index>  (711) 
4352

$$$$
ETAM-pdb1v96-A-LYS-32:MSM-pdb1v96-A-MET-143
     RDKit          3D

 20 18  0  0  0  0  0  0  0  0999 V2000
    1.2379    0.8765    0.0000 C   0  0  0  0  0  0  0  0  0  0  0  0
    2.0401    0.2966   -0.0844 H   0  0  0  0  0  0  0  0  0  0  0  0
    1.2651    1.3902    0.8496 H   0  0  0  0  0  0  0  0  0  0  0  0
    1.2207    1.5763   -0.8356 H   0  0  0  0  0  0  0  0  0  0  0  0
    0.0000    0.0000    0.0000 C   0  0  0  0  0  0  0  0  0  0  0  0
    0.0102   -0.5785   -0.8162 H   0  0  0  0  0  0  0  0  0  0  0  0
    0.0094   -0.5794    0.8163 H   0  0  0  0  0  0  0  0  0  0  0  0
   -1.2379    0.8242    0.0000 N   0  0  0  0  0  4  0  0  0  0  0  0
   -1.9198    0.4000   -0.5958 H   0  0  0  0  0  0  0  0  0  0  0  0
   -1.5977    0.8822    0.9308 H   0  0  0  0  0  0  0  0  0  0  0  0
   -1.0254    1.7418   -0.3345 H   0  0  0  0  0  0  0  0  0  0  0  0
    1.2657   -0.2168    3.6343 C   0  0  0  0  0  0  0  0  0  0  0  0
    0.5012   -0.5143    3.0452 H   0  0  0  0  0  0  0  0  0  0  0  0
    0.8732    0.2725    4.4264 H   0  0  0  0  0  0  0  0  0  0  0  0
    1.8172   -1.0900    3.9828 H   0  0  0  0  0  0  0  0  0  0  0  0
    2.3895    0.8537    2.7218 S   0  0  0  0  0  0  0  0  0  0  0  0
    3.7456    0.8283    3.7637 C   0  0  0  0  0  0  0  0  0  0  0  0
    3.4738    0.9248    4.7376 H   0  0  0  0  0  0  0  0  0  0  0  0
    4.2657   -0.0400    3.6830 H   0  0  0  0  0  0  0  0  0  0  0  0
    4.3921    1.5833    3.5582 H   0  0  0  0  0  0  0  0  0  0  0  0
  1  5  1  0
  5  8  1  0
  1  2  1  0
  1  3  1  0
  1  4  1  0
  5  6  1  0
  5  7  1  0
  8  9  1  0
  8 10  1  0
  8 11  1  0
 12 16  1  0
 16 17  1  0
 12 13  1  0
 12 14  1  0
 12 15  1  0
 17 18  1  0
 17 19  1  0
 17 20  1  0
M  CHG  1   8   1
M  END
>  <PDB_ID>  (712) 
pdb1v96

>  <RESIDUE_NAME>  (712) 
LYS   MET

>  <FRAG_NAME>  (712) 
ETAM   MSM

>  <FRAG_ATOM_NUM>  (712) 
fragi: 11  fragj: 9

>  <atom.prop.CHAIN_ID>  (712) 
A A A A A A A A A A A Z Z Z Z Z Z Z Z Z

>  <atom.prop.IS_HEAVY_ATOM>  (712) 
1 0 0 0 1 0 0 1 0 0 0 1 0 0 0 1 1 0 0 0

>  <DIFUSE_FUNC_ATOM>  (712) 
n/a

>  <FINAL_SINGLE_POINT_ENERGY>  (712) 
0

>  <NONCOV_INTER_ENERGY_QM>  (712) 
0

>  <FF_Energy>  (712) 
11.92

>  <QM_Energy>  (712) 
-0.06

>  <source>  (712) 
ETAM_MSM

>  <Index>  (712) 
4353

$$$$
ETAM-pdb1v7v-A-LYS-437:MSM-pdb1v7v-A-MET-440
     RDKit          3D

 20 18  0  0  0  0  0  0  0  0999 V2000
    1.2499    0.8597   -0.0000 C   0  0  0  0  0  0  0  0  0  0  0  0
    1.2525    1.4239    0.8264 H   0  0  0  0  0  0  0  0  0  0  0  0
    1.2327    1.4519   -0.8063 H   0  0  0  0  0  0  0  0  0  0  0  0
    2.1701    0.2757   -0.0205 H   0  0  0  0  0  0  0  0  0  0  0  0
    0.0000    0.0000    0.0000 C   0  0  0  0  0  0  0  0  0  0  0  0
    0.0047   -0.5864   -0.8159 H   0  0  0  0  0  0  0  0  0  0  0  0
    0.0044   -0.5858    0.8162 H   0  0  0  0  0  0  0  0  0  0  0  0
   -1.2499    0.8199   -0.0000 N   0  0  0  0  0  4  0  0  0  0  0  0
   -1.6634    0.7873   -0.9082 H   0  0  0  0  0  0  0  0  0  0  0  0
   -1.8862    0.4488    0.6737 H   0  0  0  0  0  0  0  0  0  0  0  0
   -1.0231    1.7639    0.2339 H   0  0  0  0  0  0  0  0  0  0  0  0
   -1.9638   -3.8191    1.0527 C   0  0  0  0  0  0  0  0  0  0  0  0
   -2.8295   -4.3383    1.0577 H   0  0  0  0  0  0  0  0  0  0  0  0
   -1.2849   -4.3405    1.5883 H   0  0  0  0  0  0  0  0  0  0  0  0
   -1.6113   -3.7213    0.0259 H   0  0  0  0  0  0  0  0  0  0  0  0
   -2.2002   -2.1764    1.7475 S   0  0  0  0  0  0  0  0  0  0  0  0
   -1.5804   -2.4063    3.4173 C   0  0  0  0  0  0  0  0  0  0  0  0
   -1.1091   -1.5761    3.7148 H   0  0  0  0  0  0  0  0  0  0  0  0
   -2.3455   -2.5949    4.0338 H   0  0  0  0  0  0  0  0  0  0  0  0
   -0.9417   -3.1761    3.4328 H   0  0  0  0  0  0  0  0  0  0  0  0
  1  5  1  0
  5  8  1  0
  1  2  1  0
  1  3  1  0
  1  4  1  0
  5  6  1  0
  5  7  1  0
  8  9  1  0
  8 10  1  0
  8 11  1  0
 12 16  1  0
 16 17  1  0
 12 13  1  0
 12 14  1  0
 12 15  1  0
 17 18  1  0
 17 19  1  0
 17 20  1  0
M  CHG  1   8   1
M  END
>  <PDB_ID>  (713) 
pdb1v7v

>  <RESIDUE_NAME>  (713) 
LYS   MET

>  <FRAG_NAME>  (713) 
ETAM   MSM

>  <FRAG_ATOM_NUM>  (713) 
fragi: 11  fragj: 9

>  <atom.prop.CHAIN_ID>  (713) 
A A A A A A A A A A A Z Z Z Z Z Z Z Z Z

>  <atom.prop.IS_HEAVY_ATOM>  (713) 
1 0 0 0 1 0 0 1 0 0 0 1 0 0 0 1 1 0 0 0

>  <DIFUSE_FUNC_ATOM>  (713) 
n/a

>  <FINAL_SINGLE_POINT_ENERGY>  (713) 
0

>  <NONCOV_INTER_ENERGY_QM>  (713) 
0

>  <FF_Energy>  (713) 
-5.08

>  <QM_Energy>  (713) 
-12.61

>  <source>  (713) 
ETAM_MSM

>  <Index>  (713) 
4354

$$$$
ETAM-pdb1vbk-A-MET-1:MSM-pdb1vbk-A-MET-78
     RDKit          3D

 20 18  0  0  0  0  0  0  0  0999 V2000
    1.2360    0.9010    0.0000 C   0  0  0  0  0  0  0  0  0  0  0  0
    1.2611    1.4229    0.8567 H   0  0  0  0  0  0  0  0  0  0  0  0
    2.0580    0.3287   -0.0558 H   0  0  0  0  0  0  0  0  0  0  0  0
    1.2472    1.6036   -0.8333 H   0  0  0  0  0  0  0  0  0  0  0  0
    0.0000    0.0000    0.0000 C   0  0  0  0  0  0  0  0  0  0  0  0
   -0.0202   -0.5624   -0.8280 H   0  0  0  0  0  0  0  0  0  0  0  0
    0.0138   -0.6600    0.8673 H   0  0  0  0  0  0  0  0  0  0  0  0
   -1.2360    0.8367    0.0000 N   0  0  0  0  0  4  0  0  0  0  0  0
   -1.4020    1.1728   -0.9236 H   0  0  0  0  0  0  0  0  0  0  0  0
   -2.0063    0.2805    0.3007 H   0  0  0  0  0  0  0  0  0  0  0  0
   -1.1095    1.6050    0.6222 H   0  0  0  0  0  0  0  0  0  0  0  0
   -0.3164   -0.6803   -3.3444 C   0  0  0  0  0  0  0  0  0  0  0  0
   -0.6427   -0.8234   -2.3897 H   0  0  0  0  0  0  0  0  0  0  0  0
    0.4090    0.0335   -3.2995 H   0  0  0  0  0  0  0  0  0  0  0  0
    0.1221   -1.6087   -3.7104 H   0  0  0  0  0  0  0  0  0  0  0  0
   -1.6725   -0.1411   -4.4064 S   0  0  0  0  0  0  0  0  0  0  0  0
   -3.0977   -0.8385   -3.5527 C   0  0  0  0  0  0  0  0  0  0  0  0
   -2.8359   -1.7027   -3.1242 H   0  0  0  0  0  0  0  0  0  0  0  0
   -3.4097   -0.1975   -2.8528 H   0  0  0  0  0  0  0  0  0  0  0  0
   -3.8312   -1.0001   -4.2113 H   0  0  0  0  0  0  0  0  0  0  0  0
  1  5  1  0
  5  8  1  0
  1  2  1  0
  1  3  1  0
  1  4  1  0
  5  6  1  0
  5  7  1  0
  8  9  1  0
  8 10  1  0
  8 11  1  0
 12 16  1  0
 16 17  1  0
 12 13  1  0
 12 14  1  0
 12 15  1  0
 17 18  1  0
 17 19  1  0
 17 20  1  0
M  CHG  1   8   1
M  END
>  <PDB_ID>  (714) 
pdb1vbk

>  <RESIDUE_NAME>  (714) 
MET   MET

>  <FRAG_NAME>  (714) 
ETAM   MSM

>  <FRAG_ATOM_NUM>  (714) 
fragi: 11  fragj: 9

>  <atom.prop.CHAIN_ID>  (714) 
A A A A A A A A A A A Z Z Z Z Z Z Z Z Z

>  <atom.prop.IS_HEAVY_ATOM>  (714) 
1 0 0 0 1 0 0 1 0 0 0 1 0 0 0 1 1 0 0 0

>  <DIFUSE_FUNC_ATOM>  (714) 
n/a

>  <FINAL_SINGLE_POINT_ENERGY>  (714) 
0

>  <NONCOV_INTER_ENERGY_QM>  (714) 
0

>  <FF_Energy>  (714) 
7.32

>  <QM_Energy>  (714) 
0.85

>  <source>  (714) 
ETAM_MSM

>  <Index>  (714) 
4355

$$$$
ETAM-pdb1vbj-B-LYS-114:MSM-pdb1vbj-B-MET-273
     RDKit          3D

 20 18  0  0  0  0  0  0  0  0999 V2000
    1.2575    0.8654    0.0000 C   0  0  0  0  0  0  0  0  0  0  0  0
    1.2415    1.4461   -0.8101 H   0  0  0  0  0  0  0  0  0  0  0  0
    2.0531    0.2660   -0.0266 H   0  0  0  0  0  0  0  0  0  0  0  0
    1.3254    1.4996    0.8839 H   0  0  0  0  0  0  0  0  0  0  0  0
    0.0000    0.0000    0.0000 C   0  0  0  0  0  0  0  0  0  0  0  0
    0.0088   -0.5861   -0.8160 H   0  0  0  0  0  0  0  0  0  0  0  0
    0.0084   -0.5859    0.8165 H   0  0  0  0  0  0  0  0  0  0  0  0
   -1.2575    0.8159    0.0000 N   0  0  0  0  0  4  0  0  0  0  0  0
   -1.2103    1.4877    0.7368 H   0  0  0  0  0  0  0  0  0  0  0  0
   -1.3439    1.2815   -0.8786 H   0  0  0  0  0  0  0  0  0  0  0  0
   -2.0385    0.2112    0.1413 H   0  0  0  0  0  0  0  0  0  0  0  0
   -0.8678    4.9355   -1.0273 C   0  0  0  0  0  0  0  0  0  0  0  0
   -1.7113    4.6795   -1.5396 H   0  0  0  0  0  0  0  0  0  0  0  0
   -0.0806    4.6527   -1.6097 H   0  0  0  0  0  0  0  0  0  0  0  0
   -0.8451    6.0185   -0.9058 H   0  0  0  0  0  0  0  0  0  0  0  0
   -0.8132    4.0920    0.5705 S   0  0  0  0  0  0  0  0  0  0  0  0
   -2.5368    3.6115    0.7591 C   0  0  0  0  0  0  0  0  0  0  0  0
   -2.8753    3.2443   -0.1071 H   0  0  0  0  0  0  0  0  0  0  0  0
   -2.6101    2.9127    1.4701 H   0  0  0  0  0  0  0  0  0  0  0  0
   -3.0775    4.4116    1.0182 H   0  0  0  0  0  0  0  0  0  0  0  0
  1  5  1  0
  5  8  1  0
  1  2  1  0
  1  3  1  0
  1  4  1  0
  5  6  1  0
  5  7  1  0
  8  9  1  0
  8 10  1  0
  8 11  1  0
 12 16  1  0
 16 17  1  0
 12 13  1  0
 12 14  1  0
 12 15  1  0
 17 18  1  0
 17 19  1  0
 17 20  1  0
M  CHG  1   8   1
M  END
>  <PDB_ID>  (715) 
pdb1vbj

>  <RESIDUE_NAME>  (715) 
LYS   MET

>  <FRAG_NAME>  (715) 
ETAM   MSM

>  <FRAG_ATOM_NUM>  (715) 
fragi: 11  fragj: 9

>  <atom.prop.CHAIN_ID>  (715) 
A A A A A A A A A A A Z Z Z Z Z Z Z Z Z

>  <atom.prop.IS_HEAVY_ATOM>  (715) 
1 0 0 0 1 0 0 1 0 0 0 1 0 0 0 1 1 0 0 0

>  <DIFUSE_FUNC_ATOM>  (715) 
n/a

>  <FINAL_SINGLE_POINT_ENERGY>  (715) 
0

>  <NONCOV_INTER_ENERGY_QM>  (715) 
0

>  <FF_Energy>  (715) 
-3.21

>  <QM_Energy>  (715) 
-9.4

>  <source>  (715) 
ETAM_MSM

>  <Index>  (715) 
4359

$$$$
ETAM-pdb1vdf-D-LYS-62:MSM-pdb1vdf-D-MET-66
     RDKit          3D

 20 18  0  0  0  0  0  0  0  0999 V2000
    1.2323    0.8567   -0.0000 C   0  0  0  0  0  0  0  0  0  0  0  0
    1.6876    0.7680    0.8846 H   0  0  0  0  0  0  0  0  0  0  0  0
    0.9656    1.8068   -0.1485 H   0  0  0  0  0  0  0  0  0  0  0  0
    1.9271    0.5579   -0.7850 H   0  0  0  0  0  0  0  0  0  0  0  0
    0.0000    0.0000    0.0000 C   0  0  0  0  0  0  0  0  0  0  0  0
    0.0098   -0.5919   -0.8158 H   0  0  0  0  0  0  0  0  0  0  0  0
    0.0093   -0.5921    0.8161 H   0  0  0  0  0  0  0  0  0  0  0  0
   -1.2323    0.8062    0.0000 N   0  0  0  0  0  4  0  0  0  0  0  0
   -1.3647    1.2232    0.9021 H   0  0  0  0  0  0  0  0  0  0  0  0
   -1.1646    1.5297   -0.6903 H   0  0  0  0  0  0  0  0  0  0  0  0
   -2.0195    0.2228   -0.2111 H   0  0  0  0  0  0  0  0  0  0  0  0
    2.8805   -1.0616    4.6741 C   0  0  0  0  0  0  0  0  0  0  0  0
    2.2141   -1.3880    5.3819 H   0  0  0  0  0  0  0  0  0  0  0  0
    3.6528   -0.6388    5.2007 H   0  0  0  0  0  0  0  0  0  0  0  0
    3.2561   -1.9190    4.1156 H   0  0  0  0  0  0  0  0  0  0  0  0
    2.1039    0.1717    3.6037 S   0  0  0  0  0  0  0  0  0  0  0  0
    3.4568    0.4996    2.4335 C   0  0  0  0  0  0  0  0  0  0  0  0
    3.7092    1.4625    2.4937 H   0  0  0  0  0  0  0  0  0  0  0  0
    4.2359   -0.0732    2.6735 H   0  0  0  0  0  0  0  0  0  0  0  0
    3.1446    0.2851    1.5117 H   0  0  0  0  0  0  0  0  0  0  0  0
  1  5  1  0
  5  8  1  0
  1  2  1  0
  1  3  1  0
  1  4  1  0
  5  6  1  0
  5  7  1  0
  8  9  1  0
  8 10  1  0
  8 11  1  0
 12 16  1  0
 16 17  1  0
 12 13  1  0
 12 14  1  0
 12 15  1  0
 17 18  1  0
 17 19  1  0
 17 20  1  0
M  CHG  1   8   1
M  END
>  <PDB_ID>  (716) 
pdb1vdf

>  <RESIDUE_NAME>  (716) 
LYS   MET

>  <FRAG_NAME>  (716) 
ETAM   MSM

>  <FRAG_ATOM_NUM>  (716) 
fragi: 11  fragj: 9

>  <atom.prop.CHAIN_ID>  (716) 
A A A A A A A A A A A Z Z Z Z Z Z Z Z Z

>  <atom.prop.IS_HEAVY_ATOM>  (716) 
1 0 0 0 1 0 0 1 0 0 0 1 0 0 0 1 1 0 0 0

>  <DIFUSE_FUNC_ATOM>  (716) 
n/a

>  <FINAL_SINGLE_POINT_ENERGY>  (716) 
0

>  <NONCOV_INTER_ENERGY_QM>  (716) 
0

>  <FF_Energy>  (716) 
7.68

>  <QM_Energy>  (716) 
-3.01

>  <source>  (716) 
ETAM_MSM

>  <Index>  (716) 
4361

$$$$
ETAM-pdb1vkk-A-LYS-38:MSM-pdb1vkk-A-MET-103
     RDKit          3D

 20 18  0  0  0  0  0  0  0  0999 V2000
    1.2702    0.8530    0.0000 C   0  0  0  0  0  0  0  0  0  0  0  0
    1.4354    1.1716   -0.9311 H   0  0  0  0  0  0  0  0  0  0  0  0
    2.0321    0.2841    0.3032 H   0  0  0  0  0  0  0  0  0  0  0  0
    1.1973    1.7192    0.6577 H   0  0  0  0  0  0  0  0  0  0  0  0
    0.0000    0.0000    0.0000 C   0  0  0  0  0  0  0  0  0  0  0  0
    0.0189   -0.6027   -0.8167 H   0  0  0  0  0  0  0  0  0  0  0  0
    0.0181   -0.6030    0.8164 H   0  0  0  0  0  0  0  0  0  0  0  0
   -1.2702    0.7774    0.0000 N   0  0  0  0  0  4  0  0  0  0  0  0
   -1.1031    1.6855    0.3829 H   0  0  0  0  0  0  0  0  0  0  0  0
   -1.6049    0.8655   -0.9382 H   0  0  0  0  0  0  0  0  0  0  0  0
   -1.9509    0.2996    0.5550 H   0  0  0  0  0  0  0  0  0  0  0  0
   -1.3369    5.7247   -1.8580 C   0  0  0  0  0  0  0  0  0  0  0  0
   -0.7233    6.5104   -1.7068 H   0  0  0  0  0  0  0  0  0  0  0  0
   -2.2221    5.9306   -1.4226 H   0  0  0  0  0  0  0  0  0  0  0  0
   -1.4814    5.5750   -2.9280 H   0  0  0  0  0  0  0  0  0  0  0  0
   -0.6334    4.2305   -1.1967 S   0  0  0  0  0  0  0  0  0  0  0  0
    1.0779    4.4702   -1.6372 C   0  0  0  0  0  0  0  0  0  0  0  0
    1.6019    3.6418   -1.4279 H   0  0  0  0  0  0  0  0  0  0  0  0
    1.1523    4.6670   -2.6176 H   0  0  0  0  0  0  0  0  0  0  0  0
    1.4576    5.2393   -1.1184 H   0  0  0  0  0  0  0  0  0  0  0  0
  1  5  1  0
  5  8  1  0
  1  2  1  0
  1  3  1  0
  1  4  1  0
  5  6  1  0
  5  7  1  0
  8  9  1  0
  8 10  1  0
  8 11  1  0
 12 16  1  0
 16 17  1  0
 12 13  1  0
 12 14  1  0
 12 15  1  0
 17 18  1  0
 17 19  1  0
 17 20  1  0
M  CHG  1   8   1
M  END
>  <PDB_ID>  (717) 
pdb1vkk

>  <RESIDUE_NAME>  (717) 
LYS   MET

>  <FRAG_NAME>  (717) 
ETAM   MSM

>  <FRAG_ATOM_NUM>  (717) 
fragi: 11  fragj: 9

>  <atom.prop.CHAIN_ID>  (717) 
A A A A A A A A A A A Z Z Z Z Z Z Z Z Z

>  <atom.prop.IS_HEAVY_ATOM>  (717) 
1 0 0 0 1 0 0 1 0 0 0 1 0 0 0 1 1 0 0 0

>  <DIFUSE_FUNC_ATOM>  (717) 
n/a

>  <FINAL_SINGLE_POINT_ENERGY>  (717) 
0

>  <NONCOV_INTER_ENERGY_QM>  (717) 
0

>  <FF_Energy>  (717) 
-5.4

>  <QM_Energy>  (717) 
-11.69

>  <source>  (717) 
ETAM_MSM

>  <Index>  (717) 
4380

$$$$
ETAM-pdb1vl4-B-LYS-124:MSM-pdb1vl4-B-MET-120
     RDKit          3D

 20 18  0  0  0  0  0  0  0  0999 V2000
    1.2640    0.8647   -0.0000 C   0  0  0  0  0  0  0  0  0  0  0  0
    1.2462    1.4633    0.7963 H   0  0  0  0  0  0  0  0  0  0  0  0
    1.2837    1.4074   -0.8352 H   0  0  0  0  0  0  0  0  0  0  0  0
    2.1838    0.2812    0.0420 H   0  0  0  0  0  0  0  0  0  0  0  0
    0.0000    0.0000    0.0000 C   0  0  0  0  0  0  0  0  0  0  0  0
    0.0064   -0.5836   -0.8167 H   0  0  0  0  0  0  0  0  0  0  0  0
    0.0056   -0.5841    0.8168 H   0  0  0  0  0  0  0  0  0  0  0  0
   -1.2640    0.8213   -0.0000 N   0  0  0  0  0  4  0  0  0  0  0  0
   -1.9749    0.3180    0.4830 H   0  0  0  0  0  0  0  0  0  0  0  0
   -1.0851    1.6866    0.4596 H   0  0  0  0  0  0  0  0  0  0  0  0
   -1.5417    0.9852   -0.9423 H   0  0  0  0  0  0  0  0  0  0  0  0
   -0.2266   -0.4576    3.6323 C   0  0  0  0  0  0  0  0  0  0  0  0
   -1.1946   -0.2686    3.3310 H   0  0  0  0  0  0  0  0  0  0  0  0
    0.3570   -0.1547    2.8372 H   0  0  0  0  0  0  0  0  0  0  0  0
   -0.0034    0.1843    4.4845 H   0  0  0  0  0  0  0  0  0  0  0  0
    0.0053   -2.2294    3.9500 S   0  0  0  0  0  0  0  0  0  0  0  0
    0.4630   -2.7377    2.3168 C   0  0  0  0  0  0  0  0  0  0  0  0
    1.4516   -2.9091    2.2720 H   0  0  0  0  0  0  0  0  0  0  0  0
   -0.0226   -3.5806    2.0676 H   0  0  0  0  0  0  0  0  0  0  0  0
    0.2285   -2.0212    1.6523 H   0  0  0  0  0  0  0  0  0  0  0  0
  1  5  1  0
  5  8  1  0
  1  2  1  0
  1  3  1  0
  1  4  1  0
  5  6  1  0
  5  7  1  0
  8  9  1  0
  8 10  1  0
  8 11  1  0
 12 16  1  0
 16 17  1  0
 12 13  1  0
 12 14  1  0
 12 15  1  0
 17 18  1  0
 17 19  1  0
 17 20  1  0
M  CHG  1   8   1
M  END
>  <PDB_ID>  (718) 
pdb1vl4

>  <RESIDUE_NAME>  (718) 
LYS   MET

>  <FRAG_NAME>  (718) 
ETAM   MSM

>  <FRAG_ATOM_NUM>  (718) 
fragi: 11  fragj: 9

>  <atom.prop.CHAIN_ID>  (718) 
A A A A A A A A A A A Z Z Z Z Z Z Z Z Z

>  <atom.prop.IS_HEAVY_ATOM>  (718) 
1 0 0 0 1 0 0 1 0 0 0 1 0 0 0 1 1 0 0 0

>  <DIFUSE_FUNC_ATOM>  (718) 
n/a

>  <FINAL_SINGLE_POINT_ENERGY>  (718) 
0

>  <NONCOV_INTER_ENERGY_QM>  (718) 
0

>  <FF_Energy>  (718) 
9.64

>  <QM_Energy>  (718) 
3.14

>  <source>  (718) 
ETAM_MSM

>  <Index>  (718) 
4386

$$$$
ETAM-pdb1vl8-A-LYS-207:MSM-pdb1vl8-A-MET-154
     RDKit          3D

 20 18  0  0  0  0  0  0  0  0999 V2000
    1.3052    0.8617    0.0000 C   0  0  0  0  0  0  0  0  0  0  0  0
    1.9916    0.3739    0.5324 H   0  0  0  0  0  0  0  0  0  0  0  0
    1.0931    1.7344    0.4309 H   0  0  0  0  0  0  0  0  0  0  0  0
    1.7015    1.0482   -0.9981 H   0  0  0  0  0  0  0  0  0  0  0  0
    0.0000    0.0000    0.0000 C   0  0  0  0  0  0  0  0  0  0  0  0
    0.0049   -0.5850   -0.8160 H   0  0  0  0  0  0  0  0  0  0  0  0
    0.0040   -0.5856    0.8165 H   0  0  0  0  0  0  0  0  0  0  0  0
   -1.3052    0.8205   -0.0000 N   0  0  0  0  0  4  0  0  0  0  0  0
   -1.5361    1.0254   -0.9418 H   0  0  0  0  0  0  0  0  0  0  0  0
   -2.0108    0.2713    0.4265 H   0  0  0  0  0  0  0  0  0  0  0  0
   -1.1426    1.6517    0.5149 H   0  0  0  0  0  0  0  0  0  0  0  0
   -1.9524    5.7816    1.1918 C   0  0  0  0  0  0  0  0  0  0  0  0
   -1.9450    6.7719    0.9439 H   0  0  0  0  0  0  0  0  0  0  0  0
   -1.3681    5.6907    2.0233 H   0  0  0  0  0  0  0  0  0  0  0  0
   -2.9723    5.5025    1.4562 H   0  0  0  0  0  0  0  0  0  0  0  0
   -1.3006    4.7735   -0.1655 S   0  0  0  0  0  0  0  0  0  0  0  0
    0.1001    5.7769   -0.6885 C   0  0  0  0  0  0  0  0  0  0  0  0
   -0.0607    6.7289   -0.4303 H   0  0  0  0  0  0  0  0  0  0  0  0
    0.9305    5.4446   -0.2432 H   0  0  0  0  0  0  0  0  0  0  0  0
    0.2029    5.7106   -1.6807 H   0  0  0  0  0  0  0  0  0  0  0  0
  1  5  1  0
  5  8  1  0
  1  2  1  0
  1  3  1  0
  1  4  1  0
  5  6  1  0
  5  7  1  0
  8  9  1  0
  8 10  1  0
  8 11  1  0
 12 16  1  0
 16 17  1  0
 12 13  1  0
 12 14  1  0
 12 15  1  0
 17 18  1  0
 17 19  1  0
 17 20  1  0
M  CHG  1   8   1
M  END
>  <PDB_ID>  (719) 
pdb1vl8

>  <RESIDUE_NAME>  (719) 
LYS   MET

>  <FRAG_NAME>  (719) 
ETAM   MSM

>  <FRAG_ATOM_NUM>  (719) 
fragi: 11  fragj: 9

>  <atom.prop.CHAIN_ID>  (719) 
A A A A A A A A A A A Z Z Z Z Z Z Z Z Z

>  <atom.prop.IS_HEAVY_ATOM>  (719) 
1 0 0 0 1 0 0 1 0 0 0 1 0 0 0 1 1 0 0 0

>  <DIFUSE_FUNC_ATOM>  (719) 
n/a

>  <FINAL_SINGLE_POINT_ENERGY>  (719) 
0

>  <NONCOV_INTER_ENERGY_QM>  (719) 
0

>  <FF_Energy>  (719) 
-4.55

>  <QM_Energy>  (719) 
-10.94

>  <source>  (719) 
ETAM_MSM

>  <Index>  (719) 
4393

$$$$
ETAM-pdb1vp5-A-LYS-285:MSM-pdb1vp5-A-MET-51
     RDKit          3D

 20 18  0  0  0  0  0  0  0  0999 V2000
    1.2326    0.8852   -0.0000 C   0  0  0  0  0  0  0  0  0  0  0  0
    1.2122    1.4595    0.8171 H   0  0  0  0  0  0  0  0  0  0  0  0
    1.2120    1.4590   -0.8162 H   0  0  0  0  0  0  0  0  0  0  0  0
    2.1570    0.3077    0.0009 H   0  0  0  0  0  0  0  0  0  0  0  0
    0.0000    0.0000    0.0000 C   0  0  0  0  0  0  0  0  0  0  0  0
    0.0118   -0.5755   -0.8157 H   0  0  0  0  0  0  0  0  0  0  0  0
    0.0113   -0.5750    0.8169 H   0  0  0  0  0  0  0  0  0  0  0  0
   -1.2326    0.8272    0.0000 N   0  0  0  0  0  4  0  0  0  0  0  0
   -2.0140    0.2622    0.2675 H   0  0  0  0  0  0  0  0  0  0  0  0
   -1.1287    1.5815    0.6492 H   0  0  0  0  0  0  0  0  0  0  0  0
   -1.3866    1.1957   -0.9166 H   0  0  0  0  0  0  0  0  0  0  0  0
   -5.0023   -1.3922   -1.2957 C   0  0  0  0  0  0  0  0  0  0  0  0
   -4.7601   -1.6528   -0.3408 H   0  0  0  0  0  0  0  0  0  0  0  0
   -4.6365   -2.1271   -1.8989 H   0  0  0  0  0  0  0  0  0  0  0  0
   -6.0892   -1.4108   -1.3754 H   0  0  0  0  0  0  0  0  0  0  0  0
   -4.3058    0.2231   -1.7328 S   0  0  0  0  0  0  0  0  0  0  0  0
   -5.1471    0.6820   -3.3096 C   0  0  0  0  0  0  0  0  0  0  0  0
   -4.4881    0.5977   -4.0466 H   0  0  0  0  0  0  0  0  0  0  0  0
   -5.9086    0.0605   -3.4454 H   0  0  0  0  0  0  0  0  0  0  0  0
   -5.4669    1.6177   -3.2273 H   0  0  0  0  0  0  0  0  0  0  0  0
  1  5  1  0
  5  8  1  0
  1  2  1  0
  1  3  1  0
  1  4  1  0
  5  6  1  0
  5  7  1  0
  8  9  1  0
  8 10  1  0
  8 11  1  0
 12 16  1  0
 16 17  1  0
 12 13  1  0
 12 14  1  0
 12 15  1  0
 17 18  1  0
 17 19  1  0
 17 20  1  0
M  CHG  1   8   1
M  END
>  <PDB_ID>  (720) 
pdb1vp5

>  <RESIDUE_NAME>  (720) 
LYS   MET

>  <FRAG_NAME>  (720) 
ETAM   MSM

>  <FRAG_ATOM_NUM>  (720) 
fragi: 11  fragj: 9

>  <atom.prop.CHAIN_ID>  (720) 
A A A A A A A A A A A Z Z Z Z Z Z Z Z Z

>  <atom.prop.IS_HEAVY_ATOM>  (720) 
1 0 0 0 1 0 0 1 0 0 0 1 0 0 0 1 1 0 0 0

>  <DIFUSE_FUNC_ATOM>  (720) 
n/a

>  <FINAL_SINGLE_POINT_ENERGY>  (720) 
0

>  <NONCOV_INTER_ENERGY_QM>  (720) 
0

>  <FF_Energy>  (720) 
-5.0

>  <QM_Energy>  (720) 
-11.8

>  <source>  (720) 
ETAM_MSM

>  <Index>  (720) 
4401

$$$$
ETAM-pdb1vhj-E-LYS-122:MSM-pdb1vhj-A-MET-167
     RDKit          3D

 20 18  0  0  0  0  0  0  0  0999 V2000
    1.2476    0.8613    0.0000 C   0  0  0  0  0  0  0  0  0  0  0  0
    1.0787    1.6721   -0.5400 H   0  0  0  0  0  0  0  0  0  0  0  0
    2.0013    0.3358   -0.3630 H   0  0  0  0  0  0  0  0  0  0  0  0
    1.4915    1.1653    1.0179 H   0  0  0  0  0  0  0  0  0  0  0  0
    0.0000    0.0000    0.0000 C   0  0  0  0  0  0  0  0  0  0  0  0
    0.0069   -0.5868   -0.8164 H   0  0  0  0  0  0  0  0  0  0  0  0
    0.0067   -0.5864    0.8165 H   0  0  0  0  0  0  0  0  0  0  0  0
   -1.2476    0.8174   -0.0000 N   0  0  0  0  0  4  0  0  0  0  0  0
   -1.1269    1.6027    0.6060 H   0  0  0  0  0  0  0  0  0  0  0  0
   -1.4338    1.1347   -0.9285 H   0  0  0  0  0  0  0  0  0  0  0  0
   -2.0091    0.2572    0.3229 H   0  0  0  0  0  0  0  0  0  0  0  0
    2.5280   -3.1075   -2.2085 C   0  0  0  0  0  0  0  0  0  0  0  0
    2.1144   -3.9973   -1.9046 H   0  0  0  0  0  0  0  0  0  0  0  0
    3.4062   -3.3625   -2.6749 H   0  0  0  0  0  0  0  0  0  0  0  0
    1.8650   -2.6547   -2.9458 H   0  0  0  0  0  0  0  0  0  0  0  0
    2.8452   -2.0349   -0.7936 S   0  0  0  0  0  0  0  0  0  0  0  0
    4.4434   -2.6531   -0.2387 C   0  0  0  0  0  0  0  0  0  0  0  0
    4.3739   -3.6336   -0.0583 H   0  0  0  0  0  0  0  0  0  0  0  0
    5.1262   -2.4897   -0.9499 H   0  0  0  0  0  0  0  0  0  0  0  0
    4.7103   -2.1767    0.5980 H   0  0  0  0  0  0  0  0  0  0  0  0
  1  5  1  0
  5  8  1  0
  1  2  1  0
  1  3  1  0
  1  4  1  0
  5  6  1  0
  5  7  1  0
  8  9  1  0
  8 10  1  0
  8 11  1  0
 12 16  1  0
 16 17  1  0
 12 13  1  0
 12 14  1  0
 12 15  1  0
 17 18  1  0
 17 19  1  0
 17 20  1  0
M  CHG  1   8   1
M  END
>  <PDB_ID>  (721) 
pdb1vhj

>  <RESIDUE_NAME>  (721) 
LYS   MET

>  <FRAG_NAME>  (721) 
ETAM   MSM

>  <FRAG_ATOM_NUM>  (721) 
fragi: 11  fragj: 9

>  <atom.prop.CHAIN_ID>  (721) 
A A A A A A A A A A A Z Z Z Z Z Z Z Z Z

>  <atom.prop.IS_HEAVY_ATOM>  (721) 
1 0 0 0 1 0 0 1 0 0 0 1 0 0 0 1 1 0 0 0

>  <DIFUSE_FUNC_ATOM>  (721) 
n/a

>  <FINAL_SINGLE_POINT_ENERGY>  (721) 
0

>  <NONCOV_INTER_ENERGY_QM>  (721) 
0

>  <FF_Energy>  (721) 
-1.78

>  <QM_Energy>  (721) 
-7.33

>  <source>  (721) 
ETAM_MSM

>  <Index>  (721) 
4402

$$$$
ETAM-pdb1vpl-A-LYS-127:MSM-pdb1vpl-A-MET-139
     RDKit          3D

 20 18  0  0  0  0  0  0  0  0999 V2000
    1.2370    0.8695   -0.0000 C   0  0  0  0  0  0  0  0  0  0  0  0
    1.2110    1.4531    0.8167 H   0  0  0  0  0  0  0  0  0  0  0  0
    1.2095    1.4534   -0.8169 H   0  0  0  0  0  0  0  0  0  0  0  0
    2.1602    0.2899   -0.0001 H   0  0  0  0  0  0  0  0  0  0  0  0
    0.0000    0.0000    0.0000 C   0  0  0  0  0  0  0  0  0  0  0  0
    0.0055   -0.5799   -0.8161 H   0  0  0  0  0  0  0  0  0  0  0  0
    0.0061   -0.5802    0.8165 H   0  0  0  0  0  0  0  0  0  0  0  0
   -1.2370    0.8282    0.0000 N   0  0  0  0  0  4  0  0  0  0  0  0
   -1.0221    1.7436    0.3386 H   0  0  0  0  0  0  0  0  0  0  0  0
   -1.5938    0.8909   -0.9315 H   0  0  0  0  0  0  0  0  0  0  0  0
   -1.9201    0.4035    0.5929 H   0  0  0  0  0  0  0  0  0  0  0  0
    0.3982    6.2803   -0.3579 C   0  0  0  0  0  0  0  0  0  0  0  0
    0.6908    6.0623    0.6019 H   0  0  0  0  0  0  0  0  0  0  0  0
   -0.5314    6.7066   -0.2668 H   0  0  0  0  0  0  0  0  0  0  0  0
    1.0807    7.0281   -0.7617 H   0  0  0  0  0  0  0  0  0  0  0  0
    0.3034    4.7554   -1.3564 S   0  0  0  0  0  0  0  0  0  0  0  0
    1.9048    3.9550   -1.1968 C   0  0  0  0  0  0  0  0  0  0  0  0
    2.3800    3.9824   -2.0760 H   0  0  0  0  0  0  0  0  0  0  0  0
    2.4487    4.4344   -0.5084 H   0  0  0  0  0  0  0  0  0  0  0  0
    1.7752    3.0036   -0.9175 H   0  0  0  0  0  0  0  0  0  0  0  0
  1  5  1  0
  5  8  1  0
  1  2  1  0
  1  3  1  0
  1  4  1  0
  5  6  1  0
  5  7  1  0
  8  9  1  0
  8 10  1  0
  8 11  1  0
 12 16  1  0
 16 17  1  0
 12 13  1  0
 12 14  1  0
 12 15  1  0
 17 18  1  0
 17 19  1  0
 17 20  1  0
M  CHG  1   8   1
M  END
>  <PDB_ID>  (722) 
pdb1vpl

>  <RESIDUE_NAME>  (722) 
LYS   MET

>  <FRAG_NAME>  (722) 
ETAM   MSM

>  <FRAG_ATOM_NUM>  (722) 
fragi: 11  fragj: 9

>  <atom.prop.CHAIN_ID>  (722) 
A A A A A A A A A A A Z Z Z Z Z Z Z Z Z

>  <atom.prop.IS_HEAVY_ATOM>  (722) 
1 0 0 0 1 0 0 1 0 0 0 1 0 0 0 1 1 0 0 0

>  <DIFUSE_FUNC_ATOM>  (722) 
n/a

>  <FINAL_SINGLE_POINT_ENERGY>  (722) 
0

>  <NONCOV_INTER_ENERGY_QM>  (722) 
0

>  <FF_Energy>  (722) 
6.93

>  <QM_Energy>  (722) 
-3.37

>  <source>  (722) 
ETAM_MSM

>  <Index>  (722) 
4407

$$$$
ETAM-pdb1vqt-A-LYS-142:MSM-pdb1vqt-A-MET-116
     RDKit          3D

 20 18  0  0  0  0  0  0  0  0999 V2000
    1.2356    0.8730    0.0000 C   0  0  0  0  0  0  0  0  0  0  0  0
    1.6693    0.8038    0.9064 H   0  0  0  0  0  0  0  0  0  0  0  0
    0.9473    1.8269   -0.1412 H   0  0  0  0  0  0  0  0  0  0  0  0
    1.9628    0.6010   -0.7651 H   0  0  0  0  0  0  0  0  0  0  0  0
    0.0000    0.0000    0.0000 C   0  0  0  0  0  0  0  0  0  0  0  0
    0.0122   -0.5821   -0.8175 H   0  0  0  0  0  0  0  0  0  0  0  0
    0.0118   -0.5838    0.8151 H   0  0  0  0  0  0  0  0  0  0  0  0
   -1.2356    0.8150   -0.0000 N   0  0  0  0  0  4  0  0  0  0  0  0
   -2.0042    0.2605   -0.3217 H   0  0  0  0  0  0  0  0  0  0  0  0
   -1.4257    1.1368    0.9293 H   0  0  0  0  0  0  0  0  0  0  0  0
   -1.1190    1.6024   -0.6056 H   0  0  0  0  0  0  0  0  0  0  0  0
   -3.1497    1.9813    4.6554 C   0  0  0  0  0  0  0  0  0  0  0  0
   -3.2433    2.2800    5.6360 H   0  0  0  0  0  0  0  0  0  0  0  0
   -3.6665    1.0927    4.5983 H   0  0  0  0  0  0  0  0  0  0  0  0
   -3.6495    2.7144    4.0223 H   0  0  0  0  0  0  0  0  0  0  0  0
   -1.4303    1.7465    4.2228 S   0  0  0  0  0  0  0  0  0  0  0  0
   -1.5038    1.4226    2.4881 C   0  0  0  0  0  0  0  0  0  0  0  0
   -0.7242    0.8547    2.2062 H   0  0  0  0  0  0  0  0  0  0  0  0
   -2.3545    0.9372    2.2603 H   0  0  0  0  0  0  0  0  0  0  0  0
   -1.4775    2.2851    1.9710 H   0  0  0  0  0  0  0  0  0  0  0  0
  1  5  1  0
  5  8  1  0
  1  2  1  0
  1  3  1  0
  1  4  1  0
  5  6  1  0
  5  7  1  0
  8  9  1  0
  8 10  1  0
  8 11  1  0
 12 16  1  0
 16 17  1  0
 12 13  1  0
 12 14  1  0
 12 15  1  0
 17 18  1  0
 17 19  1  0
 17 20  1  0
M  CHG  1   8   1
M  END
>  <PDB_ID>  (723) 
pdb1vqt

>  <RESIDUE_NAME>  (723) 
LYS   MET

>  <FRAG_NAME>  (723) 
ETAM   MSM

>  <FRAG_ATOM_NUM>  (723) 
fragi: 11  fragj: 9

>  <atom.prop.CHAIN_ID>  (723) 
A A A A A A A A A A A Z Z Z Z Z Z Z Z Z

>  <atom.prop.IS_HEAVY_ATOM>  (723) 
1 0 0 0 1 0 0 1 0 0 0 1 0 0 0 1 1 0 0 0

>  <DIFUSE_FUNC_ATOM>  (723) 
n/a

>  <FINAL_SINGLE_POINT_ENERGY>  (723) 
0

>  <NONCOV_INTER_ENERGY_QM>  (723) 
0

>  <FF_Energy>  (723) 
25.53

>  <QM_Energy>  (723) 
12.17

>  <source>  (723) 
ETAM_MSM

>  <Index>  (723) 
4410

$$$$
ETAM-pdb1vr4-B-LYS-70:MSM-pdb1vr4-B-MET-1
     RDKit          3D

 20 18  0  0  0  0  0  0  0  0999 V2000
    1.2336    0.9193   -0.0000 C   0  0  0  0  0  0  0  0  0  0  0  0
    1.7752    0.7170    0.8115 H   0  0  0  0  0  0  0  0  0  0  0  0
    0.9188    1.8650    0.0270 H   0  0  0  0  0  0  0  0  0  0  0  0
    1.8619    0.7850   -0.8806 H   0  0  0  0  0  0  0  0  0  0  0  0
    0.0000    0.0000    0.0000 C   0  0  0  0  0  0  0  0  0  0  0  0
    0.0159   -0.5547   -0.8159 H   0  0  0  0  0  0  0  0  0  0  0  0
    0.0157   -0.5554    0.8158 H   0  0  0  0  0  0  0  0  0  0  0  0
   -1.2336    0.8529   -0.0000 N   0  0  0  0  0  4  0  0  0  0  0  0
   -1.8966    0.4668   -0.6370 H   0  0  0  0  0  0  0  0  0  0  0  0
   -1.6183    0.8698    0.9211 H   0  0  0  0  0  0  0  0  0  0  0  0
   -0.9903    1.7782   -0.2832 H   0  0  0  0  0  0  0  0  0  0  0  0
   -1.7555    4.7768    2.3833 C   0  0  0  0  0  0  0  0  0  0  0  0
   -2.4943    5.4733    2.5336 H   0  0  0  0  0  0  0  0  0  0  0  0
   -0.9943    5.0456    3.0171 H   0  0  0  0  0  0  0  0  0  0  0  0
   -2.1350    3.8054    2.7003 H   0  0  0  0  0  0  0  0  0  0  0  0
   -1.2040    4.7810    0.6761 S   0  0  0  0  0  0  0  0  0  0  0  0
    0.3577    5.6199    0.9130 C   0  0  0  0  0  0  0  0  0  0  0  0
    0.5914    6.1374    0.0880 H   0  0  0  0  0  0  0  0  0  0  0  0
    0.2877    6.2492    1.6885 H   0  0  0  0  0  0  0  0  0  0  0  0
    1.0769    4.9475    1.0967 H   0  0  0  0  0  0  0  0  0  0  0  0
  1  5  1  0
  5  8  1  0
  1  2  1  0
  1  3  1  0
  1  4  1  0
  5  6  1  0
  5  7  1  0
  8  9  1  0
  8 10  1  0
  8 11  1  0
 12 16  1  0
 16 17  1  0
 12 13  1  0
 12 14  1  0
 12 15  1  0
 17 18  1  0
 17 19  1  0
 17 20  1  0
M  CHG  1   8   1
M  END
>  <PDB_ID>  (724) 
pdb1vr4

>  <RESIDUE_NAME>  (724) 
LYS   MET

>  <FRAG_NAME>  (724) 
ETAM   MSM

>  <FRAG_ATOM_NUM>  (724) 
fragi: 11  fragj: 9

>  <atom.prop.CHAIN_ID>  (724) 
A A A A A A A A A A A Z Z Z Z Z Z Z Z Z

>  <atom.prop.IS_HEAVY_ATOM>  (724) 
1 0 0 0 1 0 0 1 0 0 0 1 0 0 0 1 1 0 0 0

>  <DIFUSE_FUNC_ATOM>  (724) 
n/a

>  <FINAL_SINGLE_POINT_ENERGY>  (724) 
0

>  <NONCOV_INTER_ENERGY_QM>  (724) 
0

>  <FF_Energy>  (724) 
-4.1

>  <QM_Energy>  (724) 
-10.49

>  <source>  (724) 
ETAM_MSM

>  <Index>  (724) 
4412

$$$$
ETAM-pdb1vr4-C-LYS-70:MSM-pdb1vr4-C-MET-1
     RDKit          3D

 20 18  0  0  0  0  0  0  0  0999 V2000
    1.2734    0.8744   -0.0000 C   0  0  0  0  0  0  0  0  0  0  0  0
    1.9093    0.5007    0.6652 H   0  0  0  0  0  0  0  0  0  0  0  0
    1.0160    1.8023    0.2427 H   0  0  0  0  0  0  0  0  0  0  0  0
    1.7628    0.8935   -0.9738 H   0  0  0  0  0  0  0  0  0  0  0  0
    0.0000    0.0000    0.0000 C   0  0  0  0  0  0  0  0  0  0  0  0
    0.0179   -0.5881   -0.8160 H   0  0  0  0  0  0  0  0  0  0  0  0
    0.0179   -0.5878    0.8158 H   0  0  0  0  0  0  0  0  0  0  0  0
   -1.2734    0.8004   -0.0000 N   0  0  0  0  0  4  0  0  0  0  0  0
   -1.0947    1.6932    0.4056 H   0  0  0  0  0  0  0  0  0  0  0  0
   -1.5868    0.9102   -0.9408 H   0  0  0  0  0  0  0  0  0  0  0  0
   -1.9607    0.3143    0.5340 H   0  0  0  0  0  0  0  0  0  0  0  0
   -2.6956   -1.0602   -3.8794 C   0  0  0  0  0  0  0  0  0  0  0  0
   -2.9521   -2.0501   -4.0831 H   0  0  0  0  0  0  0  0  0  0  0  0
   -2.8729   -0.5805   -4.7887 H   0  0  0  0  0  0  0  0  0  0  0  0
   -3.4180   -0.6762   -3.1592 H   0  0  0  0  0  0  0  0  0  0  0  0
   -0.9628   -0.9314   -3.4169 S   0  0  0  0  0  0  0  0  0  0  0  0
   -0.6752   -2.6064   -2.7527 C   0  0  0  0  0  0  0  0  0  0  0  0
   -1.0546   -3.2713   -3.3889 H   0  0  0  0  0  0  0  0  0  0  0  0
    0.3056   -2.7461   -2.6531 H   0  0  0  0  0  0  0  0  0  0  0  0
   -1.1247   -2.6806   -1.8681 H   0  0  0  0  0  0  0  0  0  0  0  0
  1  5  1  0
  5  8  1  0
  1  2  1  0
  1  3  1  0
  1  4  1  0
  5  6  1  0
  5  7  1  0
  8  9  1  0
  8 10  1  0
  8 11  1  0
 12 16  1  0
 16 17  1  0
 12 13  1  0
 12 14  1  0
 12 15  1  0
 17 18  1  0
 17 19  1  0
 17 20  1  0
M  CHG  1   8   1
M  END
>  <PDB_ID>  (725) 
pdb1vr4

>  <RESIDUE_NAME>  (725) 
LYS   MET

>  <FRAG_NAME>  (725) 
ETAM   MSM

>  <FRAG_ATOM_NUM>  (725) 
fragi: 11  fragj: 9

>  <atom.prop.CHAIN_ID>  (725) 
A A A A A A A A A A A Z Z Z Z Z Z Z Z Z

>  <atom.prop.IS_HEAVY_ATOM>  (725) 
1 0 0 0 1 0 0 1 0 0 0 1 0 0 0 1 1 0 0 0

>  <DIFUSE_FUNC_ATOM>  (725) 
n/a

>  <FINAL_SINGLE_POINT_ENERGY>  (725) 
0

>  <NONCOV_INTER_ENERGY_QM>  (725) 
0

>  <FF_Energy>  (725) 
-3.93

>  <QM_Energy>  (725) 
-10.68

>  <source>  (725) 
ETAM_MSM

>  <Index>  (725) 
4413

$$$$
ETAM-pdb1vrd-A-LYS-292:MSM-pdb1vrd-A-MET-355
     RDKit          3D

 20 18  0  0  0  0  0  0  0  0999 V2000
    1.1952    0.9799   -0.0000 C   0  0  0  0  0  0  0  0  0  0  0  0
    1.1664    1.5140   -0.8305 H   0  0  0  0  0  0  0  0  0  0  0  0
    2.0317    0.4590    0.0667 H   0  0  0  0  0  0  0  0  0  0  0  0
    1.1508    1.6648    0.8467 H   0  0  0  0  0  0  0  0  0  0  0  0
    0.0000    0.0000    0.0000 C   0  0  0  0  0  0  0  0  0  0  0  0
    0.0446   -0.5370   -0.8164 H   0  0  0  0  0  0  0  0  0  0  0  0
    0.0445   -0.5374    0.8161 H   0  0  0  0  0  0  0  0  0  0  0  0
   -1.1952    0.8435    0.0000 N   0  0  0  0  0  4  0  0  0  0  0  0
   -2.0086    0.2882   -0.1963 H   0  0  0  0  0  0  0  0  0  0  0  0
   -1.3084    1.2808    0.8967 H   0  0  0  0  0  0  0  0  0  0  0  0
   -1.1126    1.5572   -0.7006 H   0  0  0  0  0  0  0  0  0  0  0  0
    1.7327    1.9838   -4.4457 C   0  0  0  0  0  0  0  0  0  0  0  0
    1.2282    2.6899   -5.0226 H   0  0  0  0  0  0  0  0  0  0  0  0
    2.2339    1.4112   -5.1574 H   0  0  0  0  0  0  0  0  0  0  0  0
    2.4731    2.5031   -3.8373 H   0  0  0  0  0  0  0  0  0  0  0  0
    0.5556    0.9611   -3.5388 S   0  0  0  0  0  0  0  0  0  0  0  0
    1.5116   -0.5565   -3.4203 C   0  0  0  0  0  0  0  0  0  0  0  0
    2.3348   -0.3901   -2.8770 H   0  0  0  0  0  0  0  0  0  0  0  0
    0.9592   -1.2642   -2.9808 H   0  0  0  0  0  0  0  0  0  0  0  0
    1.7722   -0.8581   -4.3373 H   0  0  0  0  0  0  0  0  0  0  0  0
  1  5  1  0
  5  8  1  0
  1  2  1  0
  1  3  1  0
  1  4  1  0
  5  6  1  0
  5  7  1  0
  8  9  1  0
  8 10  1  0
  8 11  1  0
 12 16  1  0
 16 17  1  0
 12 13  1  0
 12 14  1  0
 12 15  1  0
 17 18  1  0
 17 19  1  0
 17 20  1  0
M  CHG  1   8   1
M  END
>  <PDB_ID>  (726) 
pdb1vrd

>  <RESIDUE_NAME>  (726) 
LYS   MET

>  <FRAG_NAME>  (726) 
ETAM   MSM

>  <FRAG_ATOM_NUM>  (726) 
fragi: 11  fragj: 9

>  <atom.prop.CHAIN_ID>  (726) 
A A A A A A A A A A A Z Z Z Z Z Z Z Z Z

>  <atom.prop.IS_HEAVY_ATOM>  (726) 
1 0 0 0 1 0 0 1 0 0 0 1 0 0 0 1 1 0 0 0

>  <DIFUSE_FUNC_ATOM>  (726) 
n/a

>  <FINAL_SINGLE_POINT_ENERGY>  (726) 
0

>  <NONCOV_INTER_ENERGY_QM>  (726) 
0

>  <FF_Energy>  (726) 
-4.64

>  <QM_Energy>  (726) 
-10.11

>  <source>  (726) 
ETAM_MSM

>  <Index>  (726) 
4417

$$$$
ETAM-pdb1vrd-B-LYS-292:MSM-pdb1vrd-B-MET-355
     RDKit          3D

 20 18  0  0  0  0  0  0  0  0999 V2000
    1.2382    0.8998   -0.0000 C   0  0  0  0  0  0  0  0  0  0  0  0
    1.1368    1.5927   -0.7102 H   0  0  0  0  0  0  0  0  0  0  0  0
    2.0453    0.3432   -0.1810 H   0  0  0  0  0  0  0  0  0  0  0  0
    1.4005    1.4185    0.9448 H   0  0  0  0  0  0  0  0  0  0  0  0
    0.0000    0.0000    0.0000 C   0  0  0  0  0  0  0  0  0  0  0  0
    0.0333   -0.5829   -0.8166 H   0  0  0  0  0  0  0  0  0  0  0  0
    0.0332   -0.5826    0.8159 H   0  0  0  0  0  0  0  0  0  0  0  0
   -1.2382    0.7892    0.0000 N   0  0  0  0  0  4  0  0  0  0  0  0
   -1.2287    1.4394   -0.7632 H   0  0  0  0  0  0  0  0  0  0  0  0
   -2.0300    0.1821   -0.0973 H   0  0  0  0  0  0  0  0  0  0  0  0
   -1.3192    1.2968    0.8610 H   0  0  0  0  0  0  0  0  0  0  0  0
    1.6532    2.2469   -4.4205 C   0  0  0  0  0  0  0  0  0  0  0  0
    1.2111    3.0078   -4.9491 H   0  0  0  0  0  0  0  0  0  0  0  0
    2.0964    1.6476   -5.1268 H   0  0  0  0  0  0  0  0  0  0  0  0
    2.4386    2.6775   -3.7994 H   0  0  0  0  0  0  0  0  0  0  0  0
    0.4188    1.3199   -3.4749 S   0  0  0  0  0  0  0  0  0  0  0  0
    1.0750   -0.3209   -3.6963 C   0  0  0  0  0  0  0  0  0  0  0  0
    1.6881   -0.3385   -4.4890 H   0  0  0  0  0  0  0  0  0  0  0  0
    1.5874   -0.5962   -2.8799 H   0  0  0  0  0  0  0  0  0  0  0  0
    0.3257   -0.9703   -3.8476 H   0  0  0  0  0  0  0  0  0  0  0  0
  1  5  1  0
  5  8  1  0
  1  2  1  0
  1  3  1  0
  1  4  1  0
  5  6  1  0
  5  7  1  0
  8  9  1  0
  8 10  1  0
  8 11  1  0
 12 16  1  0
 16 17  1  0
 12 13  1  0
 12 14  1  0
 12 15  1  0
 17 18  1  0
 17 19  1  0
 17 20  1  0
M  CHG  1   8   1
M  END
>  <PDB_ID>  (727) 
pdb1vrd

>  <RESIDUE_NAME>  (727) 
LYS   MET

>  <FRAG_NAME>  (727) 
ETAM   MSM

>  <FRAG_ATOM_NUM>  (727) 
fragi: 11  fragj: 9

>  <atom.prop.CHAIN_ID>  (727) 
A A A A A A A A A A A Z Z Z Z Z Z Z Z Z

>  <atom.prop.IS_HEAVY_ATOM>  (727) 
1 0 0 0 1 0 0 1 0 0 0 1 0 0 0 1 1 0 0 0

>  <DIFUSE_FUNC_ATOM>  (727) 
n/a

>  <FINAL_SINGLE_POINT_ENERGY>  (727) 
0

>  <NONCOV_INTER_ENERGY_QM>  (727) 
0

>  <FF_Energy>  (727) 
-4.92

>  <QM_Energy>  (727) 
-10.14

>  <source>  (727) 
ETAM_MSM

>  <Index>  (727) 
4432

$$$$
ETAM-pdb3a2l-A-LYS-159:MSM-pdb3a2l-A-MET-169
     RDKit          3D

 20 18  0  0  0  0  0  0  0  0999 V2000
    1.2428    0.8391    0.0000 C   0  0  0  0  0  0  0  0  0  0  0  0
    1.3904    1.1974    0.9169 H   0  0  0  0  0  0  0  0  0  0  0  0
    1.1281    1.5856   -0.6475 H   0  0  0  0  0  0  0  0  0  0  0  0
    2.1083    0.2444   -0.2919 H   0  0  0  0  0  0  0  0  0  0  0  0
    0.0000    0.0000    0.0000 C   0  0  0  0  0  0  0  0  0  0  0  0
   -0.0150   -0.5835   -0.8159 H   0  0  0  0  0  0  0  0  0  0  0  0
   -0.0146   -0.5831    0.8165 H   0  0  0  0  0  0  0  0  0  0  0  0
   -1.2428    0.8488   -0.0000 N   0  0  0  0  0  4  0  0  0  0  0  0
   -1.7146    0.7306   -0.8704 H   0  0  0  0  0  0  0  0  0  0  0  0
   -1.8322    0.5596    0.7504 H   0  0  0  0  0  0  0  0  0  0  0  0
   -0.9822    1.8038    0.1198 H   0  0  0  0  0  0  0  0  0  0  0  0
   -2.0143   -1.7344   -3.9377 C   0  0  0  0  0  0  0  0  0  0  0  0
   -2.9267   -1.6071   -3.4916 H   0  0  0  0  0  0  0  0  0  0  0  0
   -1.7068   -2.6759   -3.6786 H   0  0  0  0  0  0  0  0  0  0  0  0
   -2.1516   -1.7017   -5.0184 H   0  0  0  0  0  0  0  0  0  0  0  0
   -0.8595   -0.5093   -3.4082 S   0  0  0  0  0  0  0  0  0  0  0  0
   -1.9104    0.9533   -3.5113 C   0  0  0  0  0  0  0  0  0  0  0  0
   -2.4980    0.9941   -2.7049 H   0  0  0  0  0  0  0  0  0  0  0  0
   -1.3360    1.7690   -3.5508 H   0  0  0  0  0  0  0  0  0  0  0  0
   -2.4725    0.8977   -4.3349 H   0  0  0  0  0  0  0  0  0  0  0  0
  1  5  1  0
  5  8  1  0
  1  2  1  0
  1  3  1  0
  1  4  1  0
  5  6  1  0
  5  7  1  0
  8  9  1  0
  8 10  1  0
  8 11  1  0
 12 16  1  0
 16 17  1  0
 12 13  1  0
 12 14  1  0
 12 15  1  0
 17 18  1  0
 17 19  1  0
 17 20  1  0
M  CHG  1   8   1
M  END
>  <PDB_ID>  (728) 
pdb3a2l

>  <RESIDUE_NAME>  (728) 
LYS   MET

>  <FRAG_NAME>  (728) 
ETAM   MSM

>  <FRAG_ATOM_NUM>  (728) 
fragi: 11  fragj: 9

>  <atom.prop.CHAIN_ID>  (728) 
A A A A A A A A A A A Z Z Z Z Z Z Z Z Z

>  <atom.prop.IS_HEAVY_ATOM>  (728) 
1 0 0 0 1 0 0 1 0 0 0 1 0 0 0 1 1 0 0 0

>  <DIFUSE_FUNC_ATOM>  (728) 
n/a

>  <FINAL_SINGLE_POINT_ENERGY>  (728) 
0

>  <NONCOV_INTER_ENERGY_QM>  (728) 
0

>  <FF_Energy>  (728) 
-3.15

>  <QM_Energy>  (728) 
-9.09

>  <source>  (728) 
ETAM_MSM

>  <Index>  (728) 
4441

$$$$
ETAM-pdb1w27-B-LYS-618:MSM-pdb1w27-B-MET-550
     RDKit          3D

 20 18  0  0  0  0  0  0  0  0999 V2000
    1.2731    0.8689    0.0000 C   0  0  0  0  0  0  0  0  0  0  0  0
    1.9965    0.3605    0.4606 H   0  0  0  0  0  0  0  0  0  0  0  0
    1.0754    1.7098    0.4966 H   0  0  0  0  0  0  0  0  0  0  0  0
    1.6078    1.1233   -1.0056 H   0  0  0  0  0  0  0  0  0  0  0  0
    0.0000    0.0000    0.0000 C   0  0  0  0  0  0  0  0  0  0  0  0
    0.0212   -0.5938   -0.8165 H   0  0  0  0  0  0  0  0  0  0  0  0
    0.0212   -0.5936    0.8162 H   0  0  0  0  0  0  0  0  0  0  0  0
   -1.2731    0.7867   -0.0000 N   0  0  0  0  0  4  0  0  0  0  0  0
   -1.7334    0.6645    0.8774 H   0  0  0  0  0  0  0  0  0  0  0  0
   -1.0616    1.7524   -0.1387 H   0  0  0  0  0  0  0  0  0  0  0  0
   -1.8596    0.4604   -0.7388 H   0  0  0  0  0  0  0  0  0  0  0  0
   -2.6721    2.4913    2.8673 C   0  0  0  0  0  0  0  0  0  0  0  0
   -1.7963    3.0570    2.8595 H   0  0  0  0  0  0  0  0  0  0  0  0
   -3.0497    2.6555    3.8255 H   0  0  0  0  0  0  0  0  0  0  0  0
   -3.3619    2.9585    2.1644 H   0  0  0  0  0  0  0  0  0  0  0  0
   -2.3198    0.7508    2.6024 S   0  0  0  0  0  0  0  0  0  0  0  0
   -0.6877    0.6270    3.4186 C   0  0  0  0  0  0  0  0  0  0  0  0
   -0.8268    0.6077    4.4034 H   0  0  0  0  0  0  0  0  0  0  0  0
   -0.2443   -0.2097    3.1151 H   0  0  0  0  0  0  0  0  0  0  0  0
   -0.1442    1.4195    3.1616 H   0  0  0  0  0  0  0  0  0  0  0  0
  1  5  1  0
  5  8  1  0
  1  2  1  0
  1  3  1  0
  1  4  1  0
  5  6  1  0
  5  7  1  0
  8  9  1  0
  8 10  1  0
  8 11  1  0
 12 16  1  0
 16 17  1  0
 12 13  1  0
 12 14  1  0
 12 15  1  0
 17 18  1  0
 17 19  1  0
 17 20  1  0
M  CHG  1   8   1
M  END
>  <PDB_ID>  (729) 
pdb1w27

>  <RESIDUE_NAME>  (729) 
LYS   MET

>  <FRAG_NAME>  (729) 
ETAM   MSM

>  <FRAG_ATOM_NUM>  (729) 
fragi: 11  fragj: 9

>  <atom.prop.CHAIN_ID>  (729) 
A A A A A A A A A A A Z Z Z Z Z Z Z Z Z

>  <atom.prop.IS_HEAVY_ATOM>  (729) 
1 0 0 0 1 0 0 1 0 0 0 1 0 0 0 1 1 0 0 0

>  <DIFUSE_FUNC_ATOM>  (729) 
n/a

>  <FINAL_SINGLE_POINT_ENERGY>  (729) 
0

>  <NONCOV_INTER_ENERGY_QM>  (729) 
0

>  <FF_Energy>  (729) 
2.52

>  <QM_Energy>  (729) 
-10.78

>  <source>  (729) 
ETAM_MSM

>  <Index>  (729) 
4450

$$$$
ETAM-pdb3a24-B-LYS-33:MSM-pdb3a24-B-MET-24
     RDKit          3D

 20 18  0  0  0  0  0  0  0  0999 V2000
    1.2416    0.8786   -0.0000 C   0  0  0  0  0  0  0  0  0  0  0  0
    1.2041    1.4803    0.7922 H   0  0  0  0  0  0  0  0  0  0  0  0
    1.2511    1.4144   -0.8384 H   0  0  0  0  0  0  0  0  0  0  0  0
    2.1543    0.2850    0.0507 H   0  0  0  0  0  0  0  0  0  0  0  0
    0.0000    0.0000    0.0000 C   0  0  0  0  0  0  0  0  0  0  0  0
    0.0091   -0.5765   -0.8162 H   0  0  0  0  0  0  0  0  0  0  0  0
    0.0087   -0.5766    0.8160 H   0  0  0  0  0  0  0  0  0  0  0  0
   -1.2416    0.8284   -0.0000 N   0  0  0  0  0  4  0  0  0  0  0  0
   -2.0362    0.2318   -0.1064 H   0  0  0  0  0  0  0  0  0  0  0  0
   -1.3061    1.3246    0.8645 H   0  0  0  0  0  0  0  0  0  0  0  0
   -1.2044    1.4773   -0.7581 H   0  0  0  0  0  0  0  0  0  0  0  0
   -1.0471   -0.1116   -4.0380 C   0  0  0  0  0  0  0  0  0  0  0  0
   -0.8787   -1.0891   -4.2195 H   0  0  0  0  0  0  0  0  0  0  0  0
   -0.1533    0.3446   -3.9322 H   0  0  0  0  0  0  0  0  0  0  0  0
   -1.5753    0.3246   -4.8859 H   0  0  0  0  0  0  0  0  0  0  0  0
   -2.0401    0.0829   -2.5001 S   0  0  0  0  0  0  0  0  0  0  0  0
   -2.5683    1.8680   -2.7000 C   0  0  0  0  0  0  0  0  0  0  0  0
   -3.0164    2.1393   -1.8616 H   0  0  0  0  0  0  0  0  0  0  0  0
   -1.7519    2.4006   -2.8624 H   0  0  0  0  0  0  0  0  0  0  0  0
   -3.1865    1.9092   -3.4699 H   0  0  0  0  0  0  0  0  0  0  0  0
  1  5  1  0
  5  8  1  0
  1  2  1  0
  1  3  1  0
  1  4  1  0
  5  6  1  0
  5  7  1  0
  8  9  1  0
  8 10  1  0
  8 11  1  0
 12 16  1  0
 16 17  1  0
 12 13  1  0
 12 14  1  0
 12 15  1  0
 17 18  1  0
 17 19  1  0
 17 20  1  0
M  CHG  1   8   1
M  END
>  <PDB_ID>  (730) 
pdb3a24

>  <RESIDUE_NAME>  (730) 
LYS   MET

>  <FRAG_NAME>  (730) 
ETAM   MSM

>  <FRAG_ATOM_NUM>  (730) 
fragi: 11  fragj: 9

>  <atom.prop.CHAIN_ID>  (730) 
A A A A A A A A A A A Z Z Z Z Z Z Z Z Z

>  <atom.prop.IS_HEAVY_ATOM>  (730) 
1 0 0 0 1 0 0 1 0 0 0 1 0 0 0 1 1 0 0 0

>  <DIFUSE_FUNC_ATOM>  (730) 
n/a

>  <FINAL_SINGLE_POINT_ENERGY>  (730) 
0

>  <NONCOV_INTER_ENERGY_QM>  (730) 
0

>  <FF_Energy>  (730) 
9.04

>  <QM_Energy>  (730) 
-5.78

>  <source>  (730) 
ETAM_MSM

>  <Index>  (730) 
4452

$$$$
ETAM-pdb1w37-A-LYS-211:MSM-pdb1w37-A-MET-215
     RDKit          3D

 20 18  0  0  0  0  0  0  0  0999 V2000
    1.2934    0.8692   -0.0000 C   0  0  0  0  0  0  0  0  0  0  0  0
    1.2025    1.5569    0.7164 H   0  0  0  0  0  0  0  0  0  0  0  0
    1.3664    1.3127   -0.8900 H   0  0  0  0  0  0  0  0  0  0  0  0
    2.2068    0.3024    0.1800 H   0  0  0  0  0  0  0  0  0  0  0  0
    0.0000    0.0000    0.0000 C   0  0  0  0  0  0  0  0  0  0  0  0
   -0.0058   -0.5717   -0.8163 H   0  0  0  0  0  0  0  0  0  0  0  0
   -0.0051   -0.5714    0.8164 H   0  0  0  0  0  0  0  0  0  0  0  0
   -1.2934    0.8544    0.0000 N   0  0  0  0  0  4  0  0  0  0  0  0
   -1.4898    1.1029   -0.9381 H   0  0  0  0  0  0  0  0  0  0  0  0
   -2.0193    0.3016    0.3833 H   0  0  0  0  0  0  0  0  0  0  0  0
   -1.1236    1.6571    0.5545 H   0  0  0  0  0  0  0  0  0  0  0  0
    3.9816    3.4879   -2.3051 C   0  0  0  0  0  0  0  0  0  0  0  0
    4.3455    3.4902   -3.2811 H   0  0  0  0  0  0  0  0  0  0  0  0
    4.5500    2.7498   -1.8399 H   0  0  0  0  0  0  0  0  0  0  0  0
    4.2379    4.4449   -1.8506 H   0  0  0  0  0  0  0  0  0  0  0  0
    2.1742    2.9606   -2.3184 S   0  0  0  0  0  0  0  0  0  0  0  0
    1.5601    3.6797   -3.8310 C   0  0  0  0  0  0  0  0  0  0  0  0
    1.6116    3.0069   -4.5724 H   0  0  0  0  0  0  0  0  0  0  0  0
    0.6062    3.9619   -3.7104 H   0  0  0  0  0  0  0  0  0  0  0  0
    2.1119    4.4810   -4.0743 H   0  0  0  0  0  0  0  0  0  0  0  0
  1  5  1  0
  5  8  1  0
  1  2  1  0
  1  3  1  0
  1  4  1  0
  5  6  1  0
  5  7  1  0
  8  9  1  0
  8 10  1  0
  8 11  1  0
 12 16  1  0
 16 17  1  0
 12 13  1  0
 12 14  1  0
 12 15  1  0
 17 18  1  0
 17 19  1  0
 17 20  1  0
M  CHG  1   8   1
M  END
>  <PDB_ID>  (731) 
pdb1w37

>  <RESIDUE_NAME>  (731) 
LYS   MET

>  <FRAG_NAME>  (731) 
ETAM   MSM

>  <FRAG_ATOM_NUM>  (731) 
fragi: 11  fragj: 9

>  <atom.prop.CHAIN_ID>  (731) 
A A A A A A A A A A A Z Z Z Z Z Z Z Z Z

>  <atom.prop.IS_HEAVY_ATOM>  (731) 
1 0 0 0 1 0 0 1 0 0 0 1 0 0 0 1 1 0 0 0

>  <DIFUSE_FUNC_ATOM>  (731) 
n/a

>  <FINAL_SINGLE_POINT_ENERGY>  (731) 
0

>  <NONCOV_INTER_ENERGY_QM>  (731) 
0

>  <FF_Energy>  (731) 
3.42

>  <QM_Energy>  (731) 
-4.16

>  <source>  (731) 
ETAM_MSM

>  <Index>  (731) 
4462

$$$$
ETAM-pdb1w37-B-LYS-138:MSM-pdb1w37-B-MET-107
     RDKit          3D

 20 18  0  0  0  0  0  0  0  0999 V2000
    1.2262    0.9480   -0.0000 C   0  0  0  0  0  0  0  0  0  0  0  0
    1.9688    0.4640   -0.4364 H   0  0  0  0  0  0  0  0  0  0  0  0
    1.4343    1.1539    0.9440 H   0  0  0  0  0  0  0  0  0  0  0  0
    0.9784    1.8554   -0.5508 H   0  0  0  0  0  0  0  0  0  0  0  0
    0.0000    0.0000    0.0000 C   0  0  0  0  0  0  0  0  0  0  0  0
    0.0417   -0.5570   -0.8159 H   0  0  0  0  0  0  0  0  0  0  0  0
    0.0412   -0.5571    0.8166 H   0  0  0  0  0  0  0  0  0  0  0  0
   -1.2262    0.8178    0.0000 N   0  0  0  0  0  4  0  0  0  0  0  0
   -1.2538    1.3865   -0.8240 H   0  0  0  0  0  0  0  0  0  0  0  0
   -2.0311    0.2215    0.0164 H   0  0  0  0  0  0  0  0  0  0  0  0
   -1.2394    1.4096    0.8088 H   0  0  0  0  0  0  0  0  0  0  0  0
   -3.8493    1.7891    2.5449 C   0  0  0  0  0  0  0  0  0  0  0  0
   -4.6946    1.7282    3.1418 H   0  0  0  0  0  0  0  0  0  0  0  0
   -3.9491    0.9914    1.8904 H   0  0  0  0  0  0  0  0  0  0  0  0
   -3.8729    2.7224    1.9824 H   0  0  0  0  0  0  0  0  0  0  0  0
   -2.3564    1.5493    3.5752 S   0  0  0  0  0  0  0  0  0  0  0  0
   -2.2807    3.1591    4.4985 C   0  0  0  0  0  0  0  0  0  0  0  0
   -2.2038    3.8867    3.8314 H   0  0  0  0  0  0  0  0  0  0  0  0
   -3.1153    3.2452    5.0258 H   0  0  0  0  0  0  0  0  0  0  0  0
   -1.4865    3.1315    5.0902 H   0  0  0  0  0  0  0  0  0  0  0  0
  1  5  1  0
  5  8  1  0
  1  2  1  0
  1  3  1  0
  1  4  1  0
  5  6  1  0
  5  7  1  0
  8  9  1  0
  8 10  1  0
  8 11  1  0
 12 16  1  0
 16 17  1  0
 12 13  1  0
 12 14  1  0
 12 15  1  0
 17 18  1  0
 17 19  1  0
 17 20  1  0
M  CHG  1   8   1
M  END
>  <PDB_ID>  (732) 
pdb1w37

>  <RESIDUE_NAME>  (732) 
LYS   MET

>  <FRAG_NAME>  (732) 
ETAM   MSM

>  <FRAG_ATOM_NUM>  (732) 
fragi: 11  fragj: 9

>  <atom.prop.CHAIN_ID>  (732) 
A A A A A A A A A A A Z Z Z Z Z Z Z Z Z

>  <atom.prop.IS_HEAVY_ATOM>  (732) 
1 0 0 0 1 0 0 1 0 0 0 1 0 0 0 1 1 0 0 0

>  <DIFUSE_FUNC_ATOM>  (732) 
n/a

>  <FINAL_SINGLE_POINT_ENERGY>  (732) 
0

>  <NONCOV_INTER_ENERGY_QM>  (732) 
0

>  <FF_Energy>  (732) 
-3.68

>  <QM_Energy>  (732) 
-10.61

>  <source>  (732) 
ETAM_MSM

>  <Index>  (732) 
4463

$$$$
ETAM-pdb1w37-D-LYS-211:MSM-pdb1w37-D-MET-215
     RDKit          3D

 20 18  0  0  0  0  0  0  0  0999 V2000
    1.2549    0.8736   -0.0000 C   0  0  0  0  0  0  0  0  0  0  0  0
    1.2315    1.4628   -0.8014 H   0  0  0  0  0  0  0  0  0  0  0  0
    2.0536    0.2819   -0.0288 H   0  0  0  0  0  0  0  0  0  0  0  0
    1.3183    1.5000    0.8897 H   0  0  0  0  0  0  0  0  0  0  0  0
    0.0000    0.0000    0.0000 C   0  0  0  0  0  0  0  0  0  0  0  0
    0.0059   -0.5779   -0.8162 H   0  0  0  0  0  0  0  0  0  0  0  0
    0.0054   -0.5777    0.8158 H   0  0  0  0  0  0  0  0  0  0  0  0
   -1.2549    0.8312    0.0000 N   0  0  0  0  0  4  0  0  0  0  0  0
   -2.0396    0.2316    0.1374 H   0  0  0  0  0  0  0  0  0  0  0  0
   -1.2011    1.4975    0.7390 H   0  0  0  0  0  0  0  0  0  0  0  0
   -1.3321    1.2994   -0.8769 H   0  0  0  0  0  0  0  0  0  0  0  0
   -0.9378    5.6793    1.6581 C   0  0  0  0  0  0  0  0  0  0  0  0
   -0.7849    6.4854    1.0143 H   0  0  0  0  0  0  0  0  0  0  0  0
    0.0329    5.3618    1.8718 H   0  0  0  0  0  0  0  0  0  0  0  0
   -1.3783    6.0622    2.5786 H   0  0  0  0  0  0  0  0  0  0  0  0
   -1.8456    4.3260    0.7500 S   0  0  0  0  0  0  0  0  0  0  0  0
   -3.5996    4.7306    0.9846 C   0  0  0  0  0  0  0  0  0  0  0  0
   -3.7767    4.8492    1.9586 H   0  0  0  0  0  0  0  0  0  0  0  0
   -3.8054    5.5747    0.4954 H   0  0  0  0  0  0  0  0  0  0  0  0
   -4.1549    3.9844    0.6251 H   0  0  0  0  0  0  0  0  0  0  0  0
  1  5  1  0
  5  8  1  0
  1  2  1  0
  1  3  1  0
  1  4  1  0
  5  6  1  0
  5  7  1  0
  8  9  1  0
  8 10  1  0
  8 11  1  0
 12 16  1  0
 16 17  1  0
 12 13  1  0
 12 14  1  0
 12 15  1  0
 17 18  1  0
 17 19  1  0
 17 20  1  0
M  CHG  1   8   1
M  END
>  <PDB_ID>  (733) 
pdb1w37

>  <RESIDUE_NAME>  (733) 
LYS   MET

>  <FRAG_NAME>  (733) 
ETAM   MSM

>  <FRAG_ATOM_NUM>  (733) 
fragi: 11  fragj: 9

>  <atom.prop.CHAIN_ID>  (733) 
A A A A A A A A A A A Z Z Z Z Z Z Z Z Z

>  <atom.prop.IS_HEAVY_ATOM>  (733) 
1 0 0 0 1 0 0 1 0 0 0 1 0 0 0 1 1 0 0 0

>  <DIFUSE_FUNC_ATOM>  (733) 
n/a

>  <FINAL_SINGLE_POINT_ENERGY>  (733) 
0

>  <NONCOV_INTER_ENERGY_QM>  (733) 
0

>  <FF_Energy>  (733) 
-5.15

>  <QM_Energy>  (733) 
-12.67

>  <source>  (733) 
ETAM_MSM

>  <Index>  (733) 
4465

$$$$
ETAM-pdb1vsu-B-LYS-71:MSM-pdb1vsu-B-MET-22
     RDKit          3D

 20 18  0  0  0  0  0  0  0  0999 V2000
    1.2605    0.8631   -0.0000 C   0  0  0  0  0  0  0  0  0  0  0  0
    1.3012    1.3649    0.8571 H   0  0  0  0  0  0  0  0  0  0  0  0
    1.2145    1.4906   -0.7689 H   0  0  0  0  0  0  0  0  0  0  0  0
    2.1635    0.2600   -0.0947 H   0  0  0  0  0  0  0  0  0  0  0  0
    0.0000    0.0000    0.0000 C   0  0  0  0  0  0  0  0  0  0  0  0
    0.0121   -0.5895   -0.8159 H   0  0  0  0  0  0  0  0  0  0  0  0
    0.0111   -0.5899    0.8168 H   0  0  0  0  0  0  0  0  0  0  0  0
   -1.2605    0.8057    0.0000 N   0  0  0  0  0  4  0  0  0  0  0  0
   -1.9338    0.3615   -0.5880 H   0  0  0  0  0  0  0  0  0  0  0  0
   -1.6132    0.8632    0.9327 H   0  0  0  0  0  0  0  0  0  0  0  0
   -1.0637    1.7218   -0.3445 H   0  0  0  0  0  0  0  0  0  0  0  0
   -4.9884   -2.2250    1.6732 C   0  0  0  0  0  0  0  0  0  0  0  0
   -5.3010   -1.8257    2.5722 H   0  0  0  0  0  0  0  0  0  0  0  0
   -5.1150   -3.2437    1.7869 H   0  0  0  0  0  0  0  0  0  0  0  0
   -5.6693   -1.8819    0.8942 H   0  0  0  0  0  0  0  0  0  0  0  0
   -3.2499   -1.8296    1.3715 S   0  0  0  0  0  0  0  0  0  0  0  0
   -2.6911   -1.3695    3.0215 C   0  0  0  0  0  0  0  0  0  0  0  0
   -2.5907   -0.3766    3.0712 H   0  0  0  0  0  0  0  0  0  0  0  0
   -3.3646   -1.6732    3.6950 H   0  0  0  0  0  0  0  0  0  0  0  0
   -1.8113   -1.8059    3.2065 H   0  0  0  0  0  0  0  0  0  0  0  0
  1  5  1  0
  5  8  1  0
  1  2  1  0
  1  3  1  0
  1  4  1  0
  5  6  1  0
  5  7  1  0
  8  9  1  0
  8 10  1  0
  8 11  1  0
 12 16  1  0
 16 17  1  0
 12 13  1  0
 12 14  1  0
 12 15  1  0
 17 18  1  0
 17 19  1  0
 17 20  1  0
M  CHG  1   8   1
M  END
>  <PDB_ID>  (734) 
pdb1vsu

>  <RESIDUE_NAME>  (734) 
LYS   MET

>  <FRAG_NAME>  (734) 
ETAM   MSM

>  <FRAG_ATOM_NUM>  (734) 
fragi: 11  fragj: 9

>  <atom.prop.CHAIN_ID>  (734) 
A A A A A A A A A A A Z Z Z Z Z Z Z Z Z

>  <atom.prop.IS_HEAVY_ATOM>  (734) 
1 0 0 0 1 0 0 1 0 0 0 1 0 0 0 1 1 0 0 0

>  <DIFUSE_FUNC_ATOM>  (734) 
n/a

>  <FINAL_SINGLE_POINT_ENERGY>  (734) 
0

>  <NONCOV_INTER_ENERGY_QM>  (734) 
0

>  <FF_Energy>  (734) 
-4.84

>  <QM_Energy>  (734) 
-10.81

>  <source>  (734) 
ETAM_MSM

>  <Index>  (734) 
4468

$$$$
ETAM-pdb1vsu-C-LYS-71:MSM-pdb1vsu-C-MET-22
     RDKit          3D

 20 18  0  0  0  0  0  0  0  0999 V2000
    1.2442    0.8772    0.0000 C   0  0  0  0  0  0  0  0  0  0  0  0
    1.3107    1.3333    0.8830 H   0  0  0  0  0  0  0  0  0  0  0  0
    1.1568    1.5505   -0.7284 H   0  0  0  0  0  0  0  0  0  0  0  0
    2.1509    0.2949   -0.1644 H   0  0  0  0  0  0  0  0  0  0  0  0
    0.0000    0.0000    0.0000 C   0  0  0  0  0  0  0  0  0  0  0  0
    0.0120   -0.5800   -0.8161 H   0  0  0  0  0  0  0  0  0  0  0  0
    0.0109   -0.5798    0.8166 H   0  0  0  0  0  0  0  0  0  0  0  0
   -1.2442    0.8208   -0.0000 N   0  0  0  0  0  4  0  0  0  0  0  0
   -1.1376    1.5816   -0.6382 H   0  0  0  0  0  0  0  0  0  0  0  0
   -2.0155    0.2516   -0.2816 H   0  0  0  0  0  0  0  0  0  0  0  0
   -1.4066    1.1748    0.9207 H   0  0  0  0  0  0  0  0  0  0  0  0
   -4.4660   -2.6966    1.5731 C   0  0  0  0  0  0  0  0  0  0  0  0
   -4.7361   -2.3074    2.4884 H   0  0  0  0  0  0  0  0  0  0  0  0
   -4.5427   -3.7175    1.6891 H   0  0  0  0  0  0  0  0  0  0  0  0
   -5.2008   -2.3776    0.8339 H   0  0  0  0  0  0  0  0  0  0  0  0
   -2.7771   -2.2293    1.1576 S   0  0  0  0  0  0  0  0  0  0  0  0
   -2.1035   -1.9052    2.8067 C   0  0  0  0  0  0  0  0  0  0  0  0
   -2.4173   -1.0096    3.1168 H   0  0  0  0  0  0  0  0  0  0  0  0
   -2.4223   -2.6122    3.4342 H   0  0  0  0  0  0  0  0  0  0  0  0
   -1.1067   -1.9180    2.7600 H   0  0  0  0  0  0  0  0  0  0  0  0
  1  5  1  0
  5  8  1  0
  1  2  1  0
  1  3  1  0
  1  4  1  0
  5  6  1  0
  5  7  1  0
  8  9  1  0
  8 10  1  0
  8 11  1  0
 12 16  1  0
 16 17  1  0
 12 13  1  0
 12 14  1  0
 12 15  1  0
 17 18  1  0
 17 19  1  0
 17 20  1  0
M  CHG  1   8   1
M  END
>  <PDB_ID>  (735) 
pdb1vsu

>  <RESIDUE_NAME>  (735) 
LYS   MET

>  <FRAG_NAME>  (735) 
ETAM   MSM

>  <FRAG_ATOM_NUM>  (735) 
fragi: 11  fragj: 9

>  <atom.prop.CHAIN_ID>  (735) 
A A A A A A A A A A A Z Z Z Z Z Z Z Z Z

>  <atom.prop.IS_HEAVY_ATOM>  (735) 
1 0 0 0 1 0 0 1 0 0 0 1 0 0 0 1 1 0 0 0

>  <DIFUSE_FUNC_ATOM>  (735) 
n/a

>  <FINAL_SINGLE_POINT_ENERGY>  (735) 
0

>  <NONCOV_INTER_ENERGY_QM>  (735) 
0

>  <FF_Energy>  (735) 
-4.95

>  <QM_Energy>  (735) 
-11.85

>  <source>  (735) 
ETAM_MSM

>  <Index>  (735) 
4478

$$$$
ETAM-pdb3a3e-B-LYS-420:MSM-pdb3a3e-B-MET-307
     RDKit          3D

 20 18  0  0  0  0  0  0  0  0999 V2000
    1.2122    0.9602    0.0000 C   0  0  0  0  0  0  0  0  0  0  0  0
    1.1803    1.5061   -0.8170 H   0  0  0  0  0  0  0  0  0  0  0  0
    2.0346    0.4261    0.0615 H   0  0  0  0  0  0  0  0  0  0  0  0
    1.1642    1.6248    0.8626 H   0  0  0  0  0  0  0  0  0  0  0  0
    0.0000    0.0000    0.0000 C   0  0  0  0  0  0  0  0  0  0  0  0
    0.0437   -0.5496   -0.8165 H   0  0  0  0  0  0  0  0  0  0  0  0
    0.0435   -0.5498    0.8166 H   0  0  0  0  0  0  0  0  0  0  0  0
   -1.2122    0.8259   -0.0000 N   0  0  0  0  0  4  0  0  0  0  0  0
   -1.1247    1.5617   -0.6767 H   0  0  0  0  0  0  0  0  0  0  0  0
   -2.0096    0.2635   -0.2305 H   0  0  0  0  0  0  0  0  0  0  0  0
   -1.3498    1.2311    0.9071 H   0  0  0  0  0  0  0  0  0  0  0  0
    4.6644   -1.9794   -1.5442 C   0  0  0  0  0  0  0  0  0  0  0  0
    4.3970   -2.9712   -1.6023 H   0  0  0  0  0  0  0  0  0  0  0  0
    5.6830   -1.9693   -1.6921 H   0  0  0  0  0  0  0  0  0  0  0  0
    4.2010   -1.4623   -2.3845 H   0  0  0  0  0  0  0  0  0  0  0  0
    4.2561   -1.3035    0.1336 S   0  0  0  0  0  0  0  0  0  0  0  0
    4.4470    0.4541    0.0391 C   0  0  0  0  0  0  0  0  0  0  0  0
    3.6358    0.8681   -0.3848 H   0  0  0  0  0  0  0  0  0  0  0  0
    4.5633    0.8403    0.9596 H   0  0  0  0  0  0  0  0  0  0  0  0
    5.2533    0.6855   -0.5133 H   0  0  0  0  0  0  0  0  0  0  0  0
  1  5  1  0
  5  8  1  0
  1  2  1  0
  1  3  1  0
  1  4  1  0
  5  6  1  0
  5  7  1  0
  8  9  1  0
  8 10  1  0
  8 11  1  0
 12 16  1  0
 16 17  1  0
 12 13  1  0
 12 14  1  0
 12 15  1  0
 17 18  1  0
 17 19  1  0
 17 20  1  0
M  CHG  1   8   1
M  END
>  <PDB_ID>  (736) 
pdb3a3e

>  <RESIDUE_NAME>  (736) 
LYS   MET

>  <FRAG_NAME>  (736) 
ETAM   MSM

>  <FRAG_ATOM_NUM>  (736) 
fragi: 11  fragj: 9

>  <atom.prop.CHAIN_ID>  (736) 
A A A A A A A A A A A Z Z Z Z Z Z Z Z Z

>  <atom.prop.IS_HEAVY_ATOM>  (736) 
1 0 0 0 1 0 0 1 0 0 0 1 0 0 0 1 1 0 0 0

>  <DIFUSE_FUNC_ATOM>  (736) 
n/a

>  <FINAL_SINGLE_POINT_ENERGY>  (736) 
0

>  <NONCOV_INTER_ENERGY_QM>  (736) 
0

>  <FF_Energy>  (736) 
6.26

>  <QM_Energy>  (736) 
-1.76

>  <source>  (736) 
ETAM_MSM

>  <Index>  (736) 
4485

$$$$
ETAM-pdb1w9s-B-LYS-123:MSM-pdb1w9s-A-MET-23
     RDKit          3D

 20 18  0  0  0  0  0  0  0  0999 V2000
    1.2704    0.8536    0.0000 C   0  0  0  0  0  0  0  0  0  0  0  0
    1.3433    1.3001    0.8988 H   0  0  0  0  0  0  0  0  0  0  0  0
    1.1639    1.5667   -0.7026 H   0  0  0  0  0  0  0  0  0  0  0  0
    2.1853    0.2940   -0.1946 H   0  0  0  0  0  0  0  0  0  0  0  0
    0.0000    0.0000    0.0000 C   0  0  0  0  0  0  0  0  0  0  0  0
   -0.0108   -0.5770   -0.8163 H   0  0  0  0  0  0  0  0  0  0  0  0
   -0.0110   -0.5763    0.8163 H   0  0  0  0  0  0  0  0  0  0  0  0
   -1.2704    0.8541    0.0000 N   0  0  0  0  0  4  0  0  0  0  0  0
   -1.7887    0.6404    0.8190 H   0  0  0  0  0  0  0  0  0  0  0  0
   -1.0018    1.8095   -0.0056 H   0  0  0  0  0  0  0  0  0  0  0  0
   -1.7933    0.6316   -0.8141 H   0  0  0  0  0  0  0  0  0  0  0  0
   -5.7188    0.1332    0.1641 C   0  0  0  0  0  0  0  0  0  0  0  0
   -6.5983    0.6734    0.2674 H   0  0  0  0  0  0  0  0  0  0  0  0
   -5.3292    0.1076    1.1248 H   0  0  0  0  0  0  0  0  0  0  0  0
   -5.9642   -0.8828   -0.1451 H   0  0  0  0  0  0  0  0  0  0  0  0
   -4.5804    1.0072   -0.9427 S   0  0  0  0  0  0  0  0  0  0  0  0
   -4.4969    2.6640   -0.1910 C   0  0  0  0  0  0  0  0  0  0  0  0
   -5.2983    3.1840   -0.4717 H   0  0  0  0  0  0  0  0  0  0  0  0
   -4.4813    2.5663    0.8008 H   0  0  0  0  0  0  0  0  0  0  0  0
   -3.6664    3.1166   -0.5041 H   0  0  0  0  0  0  0  0  0  0  0  0
  1  5  1  0
  5  8  1  0
  1  2  1  0
  1  3  1  0
  1  4  1  0
  5  6  1  0
  5  7  1  0
  8  9  1  0
  8 10  1  0
  8 11  1  0
 12 16  1  0
 16 17  1  0
 12 13  1  0
 12 14  1  0
 12 15  1  0
 17 18  1  0
 17 19  1  0
 17 20  1  0
M  CHG  1   8   1
M  END
>  <PDB_ID>  (737) 
pdb1w9s

>  <RESIDUE_NAME>  (737) 
LYS   MET

>  <FRAG_NAME>  (737) 
ETAM   MSM

>  <FRAG_ATOM_NUM>  (737) 
fragi: 11  fragj: 9

>  <atom.prop.CHAIN_ID>  (737) 
A A A A A A A A A A A Z Z Z Z Z Z Z Z Z

>  <atom.prop.IS_HEAVY_ATOM>  (737) 
1 0 0 0 1 0 0 1 0 0 0 1 0 0 0 1 1 0 0 0

>  <DIFUSE_FUNC_ATOM>  (737) 
n/a

>  <FINAL_SINGLE_POINT_ENERGY>  (737) 
0

>  <NONCOV_INTER_ENERGY_QM>  (737) 
0

>  <FF_Energy>  (737) 
-4.08

>  <QM_Energy>  (737) 
-11.34

>  <source>  (737) 
ETAM_MSM

>  <Index>  (737) 
4490

$$$$
ETAM-pdb3a9u-A-LYS-287:MSM-pdb3a9u-A-MET-283
     RDKit          3D

 20 18  0  0  0  0  0  0  0  0999 V2000
    1.2405    0.8751    0.0000 C   0  0  0  0  0  0  0  0  0  0  0  0
    0.9666    1.8179   -0.1797 H   0  0  0  0  0  0  0  0  0  0  0  0
    1.8542    0.5587   -0.7200 H   0  0  0  0  0  0  0  0  0  0  0  0
    1.7708    0.8414    0.9518 H   0  0  0  0  0  0  0  0  0  0  0  0
    0.0000    0.0000    0.0000 C   0  0  0  0  0  0  0  0  0  0  0  0
    0.0059   -0.5764   -0.8164 H   0  0  0  0  0  0  0  0  0  0  0  0
    0.0055   -0.5768    0.8168 H   0  0  0  0  0  0  0  0  0  0  0  0
   -1.2405    0.8326   -0.0000 N   0  0  0  0  0  4  0  0  0  0  0  0
   -1.3556    1.2509    0.8994 H   0  0  0  0  0  0  0  0  0  0  0  0
   -1.1582    1.5452   -0.6951 H   0  0  0  0  0  0  0  0  0  0  0  0
   -2.0268    0.2514   -0.2040 H   0  0  0  0  0  0  0  0  0  0  0  0
    1.8813    3.8378   -1.9598 C   0  0  0  0  0  0  0  0  0  0  0  0
    1.4838    4.0785   -1.0742 H   0  0  0  0  0  0  0  0  0  0  0  0
    1.1702    3.8640   -2.6628 H   0  0  0  0  0  0  0  0  0  0  0  0
    2.6827    4.5325   -2.2112 H   0  0  0  0  0  0  0  0  0  0  0  0
    2.6168    2.1647   -1.8796 S   0  0  0  0  0  0  0  0  0  0  0  0
    3.6210    2.1968   -3.3679 C   0  0  0  0  0  0  0  0  0  0  0  0
    4.2078    1.3869   -3.3915 H   0  0  0  0  0  0  0  0  0  0  0  0
    3.0255    2.1997   -4.1716 H   0  0  0  0  0  0  0  0  0  0  0  0
    4.1889    3.0196   -3.3694 H   0  0  0  0  0  0  0  0  0  0  0  0
  1  5  1  0
  5  8  1  0
  1  2  1  0
  1  3  1  0
  1  4  1  0
  5  6  1  0
  5  7  1  0
  8  9  1  0
  8 10  1  0
  8 11  1  0
 12 16  1  0
 16 17  1  0
 12 13  1  0
 12 14  1  0
 12 15  1  0
 17 18  1  0
 17 19  1  0
 17 20  1  0
M  CHG  1   8   1
M  END
>  <PDB_ID>  (738) 
pdb3a9u

>  <RESIDUE_NAME>  (738) 
LYS   MET

>  <FRAG_NAME>  (738) 
ETAM   MSM

>  <FRAG_ATOM_NUM>  (738) 
fragi: 11  fragj: 9

>  <atom.prop.CHAIN_ID>  (738) 
A A A A A A A A A A A Z Z Z Z Z Z Z Z Z

>  <atom.prop.IS_HEAVY_ATOM>  (738) 
1 0 0 0 1 0 0 1 0 0 0 1 0 0 0 1 1 0 0 0

>  <DIFUSE_FUNC_ATOM>  (738) 
n/a

>  <FINAL_SINGLE_POINT_ENERGY>  (738) 
0

>  <NONCOV_INTER_ENERGY_QM>  (738) 
0

>  <FF_Energy>  (738) 
44.35

>  <QM_Energy>  (738) 
9.11

>  <source>  (738) 
ETAM_MSM

>  <Index>  (738) 
4491

$$$$
ETAM-pdb1vhj-A-LYS-122:MSM-pdb1vhj-E-MET-167
     RDKit          3D

 20 18  0  0  0  0  0  0  0  0999 V2000
    1.2406    0.8671   -0.0000 C   0  0  0  0  0  0  0  0  0  0  0  0
    0.9692    1.8196   -0.0262 H   0  0  0  0  0  0  0  0  0  0  0  0
    1.7966    0.6347   -0.7864 H   0  0  0  0  0  0  0  0  0  0  0  0
    1.8280    0.6991    0.9026 H   0  0  0  0  0  0  0  0  0  0  0  0
    0.0000    0.0000    0.0000 C   0  0  0  0  0  0  0  0  0  0  0  0
    0.0018   -0.5786   -0.8161 H   0  0  0  0  0  0  0  0  0  0  0  0
    0.0009   -0.5787    0.8161 H   0  0  0  0  0  0  0  0  0  0  0  0
   -1.2406    0.8362    0.0000 N   0  0  0  0  0  4  0  0  0  0  0  0
   -1.5292    0.9949   -0.9430 H   0  0  0  0  0  0  0  0  0  0  0  0
   -1.9601    0.3548    0.4970 H   0  0  0  0  0  0  0  0  0  0  0  0
   -1.0478    1.7079    0.4453 H   0  0  0  0  0  0  0  0  0  0  0  0
    1.7925   -0.5134   -4.4961 C   0  0  0  0  0  0  0  0  0  0  0  0
    1.8602   -1.5230   -4.6806 H   0  0  0  0  0  0  0  0  0  0  0  0
    2.2945   -0.0655   -5.2742 H   0  0  0  0  0  0  0  0  0  0  0  0
    0.7440   -0.2190   -4.5393 H   0  0  0  0  0  0  0  0  0  0  0  0
    2.5959   -0.1083   -2.9147 S   0  0  0  0  0  0  0  0  0  0  0  0
    4.3053    0.0456   -3.4905 C   0  0  0  0  0  0  0  0  0  0  0  0
    4.3030    0.2623   -4.4650 H   0  0  0  0  0  0  0  0  0  0  0  0
    4.7563    0.7760   -2.9822 H   0  0  0  0  0  0  0  0  0  0  0  0
    4.7808   -0.8183   -3.3362 H   0  0  0  0  0  0  0  0  0  0  0  0
  1  5  1  0
  5  8  1  0
  1  2  1  0
  1  3  1  0
  1  4  1  0
  5  6  1  0
  5  7  1  0
  8  9  1  0
  8 10  1  0
  8 11  1  0
 12 16  1  0
 16 17  1  0
 12 13  1  0
 12 14  1  0
 12 15  1  0
 17 18  1  0
 17 19  1  0
 17 20  1  0
M  CHG  1   8   1
M  END
>  <PDB_ID>  (739) 
pdb1vhj

>  <RESIDUE_NAME>  (739) 
LYS   MET

>  <FRAG_NAME>  (739) 
ETAM   MSM

>  <FRAG_ATOM_NUM>  (739) 
fragi: 11  fragj: 9

>  <atom.prop.CHAIN_ID>  (739) 
A A A A A A A A A A A Z Z Z Z Z Z Z Z Z

>  <atom.prop.IS_HEAVY_ATOM>  (739) 
1 0 0 0 1 0 0 1 0 0 0 1 0 0 0 1 1 0 0 0

>  <DIFUSE_FUNC_ATOM>  (739) 
n/a

>  <FINAL_SINGLE_POINT_ENERGY>  (739) 
0

>  <NONCOV_INTER_ENERGY_QM>  (739) 
0

>  <FF_Energy>  (739) 
1.0

>  <QM_Energy>  (739) 
-5.62

>  <source>  (739) 
ETAM_MSM

>  <Index>  (739) 
4492

$$$$
ETAM-pdb1vsu-D-LYS-71:MSM-pdb1vsu-D-MET-22
     RDKit          3D

 20 18  0  0  0  0  0  0  0  0999 V2000
    1.2461    0.8719    0.0000 C   0  0  0  0  0  0  0  0  0  0  0  0
    1.2926    1.3630    0.8658 H   0  0  0  0  0  0  0  0  0  0  0  0
    1.1845    1.5170   -0.7568 H   0  0  0  0  0  0  0  0  0  0  0  0
    2.1563    0.2837   -0.1159 H   0  0  0  0  0  0  0  0  0  0  0  0
    0.0000    0.0000    0.0000 C   0  0  0  0  0  0  0  0  0  0  0  0
    0.0108   -0.5826   -0.8165 H   0  0  0  0  0  0  0  0  0  0  0  0
    0.0104   -0.5829    0.8166 H   0  0  0  0  0  0  0  0  0  0  0  0
   -1.2461    0.8175   -0.0000 N   0  0  0  0  0  4  0  0  0  0  0  0
   -2.0396    0.2107    0.0358 H   0  0  0  0  0  0  0  0  0  0  0  0
   -1.2466    1.4183    0.7978 H   0  0  0  0  0  0  0  0  0  0  0  0
   -1.2808    1.3669   -0.8337 H   0  0  0  0  0  0  0  0  0  0  0  0
   -4.3197   -2.4609    1.1712 C   0  0  0  0  0  0  0  0  0  0  0  0
   -4.6216   -2.0192    2.0458 H   0  0  0  0  0  0  0  0  0  0  0  0
   -4.4811   -3.4653    1.3005 H   0  0  0  0  0  0  0  0  0  0  0  0
   -4.9611   -2.1060    0.3644 H   0  0  0  0  0  0  0  0  0  0  0  0
   -2.5652   -2.1342    0.8664 S   0  0  0  0  0  0  0  0  0  0  0  0
   -2.0414   -1.5639    2.4839 C   0  0  0  0  0  0  0  0  0  0  0  0
   -1.7562   -0.6064    2.4250 H   0  0  0  0  0  0  0  0  0  0  0  0
   -2.8014   -1.6442    3.1298 H   0  0  0  0  0  0  0  0  0  0  0  0
   -1.2734   -2.1209    2.8031 H   0  0  0  0  0  0  0  0  0  0  0  0
  1  5  1  0
  5  8  1  0
  1  2  1  0
  1  3  1  0
  1  4  1  0
  5  6  1  0
  5  7  1  0
  8  9  1  0
  8 10  1  0
  8 11  1  0
 12 16  1  0
 16 17  1  0
 12 13  1  0
 12 14  1  0
 12 15  1  0
 17 18  1  0
 17 19  1  0
 17 20  1  0
M  CHG  1   8   1
M  END
>  <PDB_ID>  (740) 
pdb1vsu

>  <RESIDUE_NAME>  (740) 
LYS   MET

>  <FRAG_NAME>  (740) 
ETAM   MSM

>  <FRAG_ATOM_NUM>  (740) 
fragi: 11  fragj: 9

>  <atom.prop.CHAIN_ID>  (740) 
A A A A A A A A A A A Z Z Z Z Z Z Z Z Z

>  <atom.prop.IS_HEAVY_ATOM>  (740) 
1 0 0 0 1 0 0 1 0 0 0 1 0 0 0 1 1 0 0 0

>  <DIFUSE_FUNC_ATOM>  (740) 
n/a

>  <FINAL_SINGLE_POINT_ENERGY>  (740) 
0

>  <NONCOV_INTER_ENERGY_QM>  (740) 
0

>  <FF_Energy>  (740) 
-4.03

>  <QM_Energy>  (740) 
-13.86

>  <source>  (740) 
ETAM_MSM

>  <Index>  (740) 
4493

$$$$
ETAM-pdb3a9r-A-LYS-136:MSM-pdb3a9r-A-MET-102
     RDKit          3D

 20 18  0  0  0  0  0  0  0  0999 V2000
    1.2483    0.8681   -0.0000 C   0  0  0  0  0  0  0  0  0  0  0  0
    2.0391    0.2874    0.1804 H   0  0  0  0  0  0  0  0  0  0  0  0
    1.1590    1.5519    0.7216 H   0  0  0  0  0  0  0  0  0  0  0  0
    1.3977    1.3776   -0.9520 H   0  0  0  0  0  0  0  0  0  0  0  0
    0.0000    0.0000    0.0000 C   0  0  0  0  0  0  0  0  0  0  0  0
    0.0147   -0.5880   -0.8164 H   0  0  0  0  0  0  0  0  0  0  0  0
    0.0144   -0.5884    0.8166 H   0  0  0  0  0  0  0  0  0  0  0  0
   -1.2483    0.8044    0.0000 N   0  0  0  0  0  4  0  0  0  0  0  0
   -1.2518    1.4133   -0.7935 H   0  0  0  0  0  0  0  0  0  0  0  0
   -2.0380    0.1932   -0.0450 H   0  0  0  0  0  0  0  0  0  0  0  0
   -1.2940    1.3483    0.8383 H   0  0  0  0  0  0  0  0  0  0  0  0
    2.9238   -3.8497    2.2783 C   0  0  0  0  0  0  0  0  0  0  0  0
    3.8083   -4.1395    1.9137 H   0  0  0  0  0  0  0  0  0  0  0  0
    2.2856   -4.6181    2.2587 H   0  0  0  0  0  0  0  0  0  0  0  0
    3.0419   -3.4861    3.2990 H   0  0  0  0  0  0  0  0  0  0  0  0
    2.2738   -2.4667    1.3290 S   0  0  0  0  0  0  0  0  0  0  0  0
    3.7834   -1.5268    0.9593 C   0  0  0  0  0  0  0  0  0  0  0  0
    4.2208   -1.2673    1.8170 H   0  0  0  0  0  0  0  0  0  0  0  0
    4.3975   -2.0997    0.4226 H   0  0  0  0  0  0  0  0  0  0  0  0
    3.5373   -0.7113    0.4408 H   0  0  0  0  0  0  0  0  0  0  0  0
  1  5  1  0
  5  8  1  0
  1  2  1  0
  1  3  1  0
  1  4  1  0
  5  6  1  0
  5  7  1  0
  8  9  1  0
  8 10  1  0
  8 11  1  0
 12 16  1  0
 16 17  1  0
 12 13  1  0
 12 14  1  0
 12 15  1  0
 17 18  1  0
 17 19  1  0
 17 20  1  0
M  CHG  1   8   1
M  END
>  <PDB_ID>  (741) 
pdb3a9r

>  <RESIDUE_NAME>  (741) 
LYS   MET

>  <FRAG_NAME>  (741) 
ETAM   MSM

>  <FRAG_ATOM_NUM>  (741) 
fragi: 11  fragj: 9

>  <atom.prop.CHAIN_ID>  (741) 
A A A A A A A A A A A Z Z Z Z Z Z Z Z Z

>  <atom.prop.IS_HEAVY_ATOM>  (741) 
1 0 0 0 1 0 0 1 0 0 0 1 0 0 0 1 1 0 0 0

>  <DIFUSE_FUNC_ATOM>  (741) 
n/a

>  <FINAL_SINGLE_POINT_ENERGY>  (741) 
0

>  <NONCOV_INTER_ENERGY_QM>  (741) 
0

>  <FF_Energy>  (741) 
-0.71

>  <QM_Energy>  (741) 
-6.03

>  <source>  (741) 
ETAM_MSM

>  <Index>  (741) 
4494

$$$$
ETAM-pdb3a9g-A-LYS-325:MSM-pdb3a9g-A-MET-305
     RDKit          3D

 20 18  0  0  0  0  0  0  0  0999 V2000
    1.2155    0.9059   -0.0000 C   0  0  0  0  0  0  0  0  0  0  0  0
    1.2082    1.4433    0.8447 H   0  0  0  0  0  0  0  0  0  0  0  0
    1.1484    1.5224   -0.7859 H   0  0  0  0  0  0  0  0  0  0  0  0
    2.1494    0.3471   -0.0607 H   0  0  0  0  0  0  0  0  0  0  0  0
    0.0000    0.0000    0.0000 C   0  0  0  0  0  0  0  0  0  0  0  0
    0.0099   -0.5588   -0.8164 H   0  0  0  0  0  0  0  0  0  0  0  0
    0.0097   -0.5589    0.8165 H   0  0  0  0  0  0  0  0  0  0  0  0
   -1.2155    0.8552   -0.0000 N   0  0  0  0  0  4  0  0  0  0  0  0
   -0.9732    1.7781    0.2995 H   0  0  0  0  0  0  0  0  0  0  0  0
   -1.5956    0.8928   -0.9242 H   0  0  0  0  0  0  0  0  0  0  0  0
   -1.8938    0.4693    0.6246 H   0  0  0  0  0  0  0  0  0  0  0  0
    0.1550    5.2687   -1.0506 C   0  0  0  0  0  0  0  0  0  0  0  0
   -0.5197    5.3985   -0.2977 H   0  0  0  0  0  0  0  0  0  0  0  0
    0.2173    6.1615   -1.5389 H   0  0  0  0  0  0  0  0  0  0  0  0
    1.1261    5.0574   -0.6029 H   0  0  0  0  0  0  0  0  0  0  0  0
   -0.3553    3.9545   -2.1618 S   0  0  0  0  0  0  0  0  0  0  0  0
   -2.0557    4.4116   -2.5125 C   0  0  0  0  0  0  0  0  0  0  0  0
   -2.1790    5.3909   -2.3491 H   0  0  0  0  0  0  0  0  0  0  0  0
   -2.2670    4.2042   -3.4680 H   0  0  0  0  0  0  0  0  0  0  0  0
   -2.6703    3.8945   -1.9154 H   0  0  0  0  0  0  0  0  0  0  0  0
  1  5  1  0
  5  8  1  0
  1  2  1  0
  1  3  1  0
  1  4  1  0
  5  6  1  0
  5  7  1  0
  8  9  1  0
  8 10  1  0
  8 11  1  0
 12 16  1  0
 16 17  1  0
 12 13  1  0
 12 14  1  0
 12 15  1  0
 17 18  1  0
 17 19  1  0
 17 20  1  0
M  CHG  1   8   1
M  END
>  <PDB_ID>  (742) 
pdb3a9g

>  <RESIDUE_NAME>  (742) 
LYS   MET

>  <FRAG_NAME>  (742) 
ETAM   MSM

>  <FRAG_ATOM_NUM>  (742) 
fragi: 11  fragj: 9

>  <atom.prop.CHAIN_ID>  (742) 
A A A A A A A A A A A Z Z Z Z Z Z Z Z Z

>  <atom.prop.IS_HEAVY_ATOM>  (742) 
1 0 0 0 1 0 0 1 0 0 0 1 0 0 0 1 1 0 0 0

>  <DIFUSE_FUNC_ATOM>  (742) 
n/a

>  <FINAL_SINGLE_POINT_ENERGY>  (742) 
0

>  <NONCOV_INTER_ENERGY_QM>  (742) 
0

>  <FF_Energy>  (742) 
-4.21

>  <QM_Energy>  (742) 
-10.27

>  <source>  (742) 
ETAM_MSM

>  <Index>  (742) 
4500

$$$$
ETAM-pdb3aaw-B-LYS-97:MSM-pdb3aaw-B-MET-46
     RDKit          3D

 20 18  0  0  0  0  0  0  0  0999 V2000
    1.2539    0.8566    0.0000 C   0  0  0  0  0  0  0  0  0  0  0  0
    1.2661    1.4018    0.8342 H   0  0  0  0  0  0  0  0  0  0  0  0
    1.2305    1.4527   -0.7980 H   0  0  0  0  0  0  0  0  0  0  0  0
    2.1587    0.2499   -0.0380 H   0  0  0  0  0  0  0  0  0  0  0  0
    0.0000    0.0000    0.0000 C   0  0  0  0  0  0  0  0  0  0  0  0
    0.0042   -0.5882   -0.8158 H   0  0  0  0  0  0  0  0  0  0  0  0
    0.0040   -0.5889    0.8166 H   0  0  0  0  0  0  0  0  0  0  0  0
   -1.2539    0.8169   -0.0000 N   0  0  0  0  0  4  0  0  0  0  0  0
   -1.9983    0.2742   -0.3844 H   0  0  0  0  0  0  0  0  0  0  0  0
   -1.4752    1.0772    0.9382 H   0  0  0  0  0  0  0  0  0  0  0  0
   -1.1111    1.6360   -0.5536 H   0  0  0  0  0  0  0  0  0  0  0  0
   -1.7462    1.5838    3.8359 C   0  0  0  0  0  0  0  0  0  0  0  0
   -2.5951    1.3438    3.3199 H   0  0  0  0  0  0  0  0  0  0  0  0
   -1.3907    2.4424    3.4117 H   0  0  0  0  0  0  0  0  0  0  0  0
   -2.0089    1.7845    4.8745 H   0  0  0  0  0  0  0  0  0  0  0  0
   -0.5279    0.2593    3.7016 S   0  0  0  0  0  0  0  0  0  0  0  0
    0.9419    1.1124    4.1991 C   0  0  0  0  0  0  0  0  0  0  0  0
    0.7358    1.7469    4.9508 H   0  0  0  0  0  0  0  0  0  0  0  0
    1.6341    0.4551    4.5112 H   0  0  0  0  0  0  0  0  0  0  0  0
    1.3161    1.6350    3.4277 H   0  0  0  0  0  0  0  0  0  0  0  0
  1  5  1  0
  5  8  1  0
  1  2  1  0
  1  3  1  0
  1  4  1  0
  5  6  1  0
  5  7  1  0
  8  9  1  0
  8 10  1  0
  8 11  1  0
 12 16  1  0
 16 17  1  0
 12 13  1  0
 12 14  1  0
 12 15  1  0
 17 18  1  0
 17 19  1  0
 17 20  1  0
M  CHG  1   8   1
M  END
>  <PDB_ID>  (743) 
pdb3aaw

>  <RESIDUE_NAME>  (743) 
LYS   MET

>  <FRAG_NAME>  (743) 
ETAM   MSM

>  <FRAG_ATOM_NUM>  (743) 
fragi: 11  fragj: 9

>  <atom.prop.CHAIN_ID>  (743) 
A A A A A A A A A A A Z Z Z Z Z Z Z Z Z

>  <atom.prop.IS_HEAVY_ATOM>  (743) 
1 0 0 0 1 0 0 1 0 0 0 1 0 0 0 1 1 0 0 0

>  <DIFUSE_FUNC_ATOM>  (743) 
n/a

>  <FINAL_SINGLE_POINT_ENERGY>  (743) 
0

>  <NONCOV_INTER_ENERGY_QM>  (743) 
0

>  <FF_Energy>  (743) 
-4.3

>  <QM_Energy>  (743) 
-10.25

>  <source>  (743) 
ETAM_MSM

>  <Index>  (743) 
4507

$$$$
ETAM-pdb3aaw-F-LYS-346:MSM-pdb3aaw-F-MET-295
     RDKit          3D

 20 18  0  0  0  0  0  0  0  0999 V2000
    1.2299    0.8490   -0.0000 C   0  0  0  0  0  0  0  0  0  0  0  0
    1.1513    1.5440    0.7217 H   0  0  0  0  0  0  0  0  0  0  0  0
    1.3092    1.3141   -0.8875 H   0  0  0  0  0  0  0  0  0  0  0  0
    2.1454    0.2830    0.1719 H   0  0  0  0  0  0  0  0  0  0  0  0
    0.0000    0.0000    0.0000 C   0  0  0  0  0  0  0  0  0  0  0  0
   -0.0274   -0.5660   -0.8157 H   0  0  0  0  0  0  0  0  0  0  0  0
   -0.0276   -0.5668    0.8167 H   0  0  0  0  0  0  0  0  0  0  0  0
   -1.2299    0.8901   -0.0000 N   0  0  0  0  0  4  0  0  0  0  0  0
   -0.9673    1.7927    0.3259 H   0  0  0  0  0  0  0  0  0  0  0  0
   -1.5804    0.9463   -0.9297 H   0  0  0  0  0  0  0  0  0  0  0  0
   -1.9116    0.4886    0.6030 H   0  0  0  0  0  0  0  0  0  0  0  0
   -2.7959   -0.9351    3.6836 C   0  0  0  0  0  0  0  0  0  0  0  0
   -3.0732   -1.3180    4.5864 H   0  0  0  0  0  0  0  0  0  0  0  0
   -3.1016   -1.6043    2.9787 H   0  0  0  0  0  0  0  0  0  0  0  0
   -3.3355   -0.0011    3.5272 H   0  0  0  0  0  0  0  0  0  0  0  0
   -1.0211   -0.6800    3.6058 S   0  0  0  0  0  0  0  0  0  0  0  0
   -0.4394   -2.2925    3.0793 C   0  0  0  0  0  0  0  0  0  0  0  0
   -1.1988   -2.8086    2.6810 H   0  0  0  0  0  0  0  0  0  0  0  0
    0.2813   -2.1813    2.3945 H   0  0  0  0  0  0  0  0  0  0  0  0
   -0.0755   -2.7907    3.8676 H   0  0  0  0  0  0  0  0  0  0  0  0
  1  5  1  0
  5  8  1  0
  1  2  1  0
  1  3  1  0
  1  4  1  0
  5  6  1  0
  5  7  1  0
  8  9  1  0
  8 10  1  0
  8 11  1  0
 12 16  1  0
 16 17  1  0
 12 13  1  0
 12 14  1  0
 12 15  1  0
 17 18  1  0
 17 19  1  0
 17 20  1  0
M  CHG  1   8   1
M  END
>  <PDB_ID>  (744) 
pdb3aaw

>  <RESIDUE_NAME>  (744) 
LYS   MET

>  <FRAG_NAME>  (744) 
ETAM   MSM

>  <FRAG_ATOM_NUM>  (744) 
fragi: 11  fragj: 9

>  <atom.prop.CHAIN_ID>  (744) 
A A A A A A A A A A A Z Z Z Z Z Z Z Z Z

>  <atom.prop.IS_HEAVY_ATOM>  (744) 
1 0 0 0 1 0 0 1 0 0 0 1 0 0 0 1 1 0 0 0

>  <DIFUSE_FUNC_ATOM>  (744) 
n/a

>  <FINAL_SINGLE_POINT_ENERGY>  (744) 
0

>  <NONCOV_INTER_ENERGY_QM>  (744) 
0

>  <FF_Energy>  (744) 
-3.58

>  <QM_Energy>  (744) 
-9.42

>  <source>  (744) 
ETAM_MSM

>  <Index>  (744) 
4509

$$$$
ETAM-pdb3adk-A-LYS-4:MSM-pdb3adk-A-MET-1
     RDKit          3D

 20 18  0  0  0  0  0  0  0  0999 V2000
    1.2510    0.8642   -0.0000 C   0  0  0  0  0  0  0  0  0  0  0  0
    1.0370    1.7248    0.4723 H   0  0  0  0  0  0  0  0  0  0  0  0
    1.4895    1.0689   -0.9541 H   0  0  0  0  0  0  0  0  0  0  0  0
    2.1025    0.3905    0.4886 H   0  0  0  0  0  0  0  0  0  0  0  0
    0.0000    0.0000    0.0000 C   0  0  0  0  0  0  0  0  0  0  0  0
    0.0132   -0.5906   -0.8163 H   0  0  0  0  0  0  0  0  0  0  0  0
    0.0130   -0.5905    0.8165 H   0  0  0  0  0  0  0  0  0  0  0  0
   -1.2510    0.8032    0.0000 N   0  0  0  0  0  4  0  0  0  0  0  0
   -1.7239    0.6813    0.8720 H   0  0  0  0  0  0  0  0  0  0  0  0
   -1.0260    1.7690   -0.1265 H   0  0  0  0  0  0  0  0  0  0  0  0
   -1.8419    0.4975   -0.7463 H   0  0  0  0  0  0  0  0  0  0  0  0
   -0.2909    4.1561    4.2048 C   0  0  0  0  0  0  0  0  0  0  0  0
   -0.6522    5.0360    4.5920 H   0  0  0  0  0  0  0  0  0  0  0  0
    0.5509    3.9441    4.7519 H   0  0  0  0  0  0  0  0  0  0  0  0
   -1.0264    3.3749    4.3966 H   0  0  0  0  0  0  0  0  0  0  0  0
    0.0735    4.3056    2.4854 S   0  0  0  0  0  0  0  0  0  0  0  0
    1.2943    3.0411    2.4390 C   0  0  0  0  0  0  0  0  0  0  0  0
    0.9241    2.1807    2.8088 H   0  0  0  0  0  0  0  0  0  0  0  0
    1.5961    2.8778    1.4925 H   0  0  0  0  0  0  0  0  0  0  0  0
    2.0958    3.3042    2.9885 H   0  0  0  0  0  0  0  0  0  0  0  0
  1  5  1  0
  5  8  1  0
  1  2  1  0
  1  3  1  0
  1  4  1  0
  5  6  1  0
  5  7  1  0
  8  9  1  0
  8 10  1  0
  8 11  1  0
 12 16  1  0
 16 17  1  0
 12 13  1  0
 12 14  1  0
 12 15  1  0
 17 18  1  0
 17 19  1  0
 17 20  1  0
M  CHG  1   8   1
M  END
>  <PDB_ID>  (745) 
pdb3adk

>  <RESIDUE_NAME>  (745) 
LYS   MET

>  <FRAG_NAME>  (745) 
ETAM   MSM

>  <FRAG_ATOM_NUM>  (745) 
fragi: 11  fragj: 9

>  <atom.prop.CHAIN_ID>  (745) 
A A A A A A A A A A A Z Z Z Z Z Z Z Z Z

>  <atom.prop.IS_HEAVY_ATOM>  (745) 
1 0 0 0 1 0 0 1 0 0 0 1 0 0 0 1 1 0 0 0

>  <DIFUSE_FUNC_ATOM>  (745) 
n/a

>  <FINAL_SINGLE_POINT_ENERGY>  (745) 
0

>  <NONCOV_INTER_ENERGY_QM>  (745) 
0

>  <FF_Energy>  (745) 
9.26

>  <QM_Energy>  (745) 
-0.74

>  <source>  (745) 
ETAM_MSM

>  <Index>  (745) 
4521

$$$$
ETAM-pdb1wcg-A-LYS-74:MSM-pdb1wcg-A-MET-10
     RDKit          3D

 20 18  0  0  0  0  0  0  0  0999 V2000
    1.2633    0.8642    0.0000 C   0  0  0  0  0  0  0  0  0  0  0  0
    1.9657    0.3924    0.5247 H   0  0  0  0  0  0  0  0  0  0  0  0
    1.0449    1.7374    0.4240 H   0  0  0  0  0  0  0  0  0  0  0  0
    1.6336    1.0411   -1.0098 H   0  0  0  0  0  0  0  0  0  0  0  0
    0.0000    0.0000    0.0000 C   0  0  0  0  0  0  0  0  0  0  0  0
    0.0262   -0.6014   -0.8160 H   0  0  0  0  0  0  0  0  0  0  0  0
    0.0257   -0.6010    0.8169 H   0  0  0  0  0  0  0  0  0  0  0  0
   -1.2633    0.7701    0.0000 N   0  0  0  0  0  4  0  0  0  0  0  0
   -1.3518    1.2694    0.8630 H   0  0  0  0  0  0  0  0  0  0  0  0
   -1.2603    1.4208   -0.7600 H   0  0  0  0  0  0  0  0  0  0  0  0
   -2.0382    0.1448   -0.1028 H   0  0  0  0  0  0  0  0  0  0  0  0
   -1.0795    3.9065    0.3432 C   0  0  0  0  0  0  0  0  0  0  0  0
   -0.6730    2.9624    0.3731 H   0  0  0  0  0  0  0  0  0  0  0  0
   -1.3148    4.1282    1.3189 H   0  0  0  0  0  0  0  0  0  0  0  0
   -0.3129    4.6033    0.0041 H   0  0  0  0  0  0  0  0  0  0  0  0
   -2.5816    3.9150   -0.6867 S   0  0  0  0  0  0  0  0  0  0  0  0
   -1.9596    3.3180   -2.2546 C   0  0  0  0  0  0  0  0  0  0  0  0
   -0.9585    3.3106   -2.2394 H   0  0  0  0  0  0  0  0  0  0  0  0
   -2.2945    2.3887   -2.4174 H   0  0  0  0  0  0  0  0  0  0  0  0
   -2.2751    3.9174   -2.9925 H   0  0  0  0  0  0  0  0  0  0  0  0
  1  5  1  0
  5  8  1  0
  1  2  1  0
  1  3  1  0
  1  4  1  0
  5  6  1  0
  5  7  1  0
  8  9  1  0
  8 10  1  0
  8 11  1  0
 12 16  1  0
 16 17  1  0
 12 13  1  0
 12 14  1  0
 12 15  1  0
 17 18  1  0
 17 19  1  0
 17 20  1  0
M  CHG  1   8   1
M  END
>  <PDB_ID>  (746) 
pdb1wcg

>  <RESIDUE_NAME>  (746) 
LYS   MET

>  <FRAG_NAME>  (746) 
ETAM   MSM

>  <FRAG_ATOM_NUM>  (746) 
fragi: 11  fragj: 9

>  <atom.prop.CHAIN_ID>  (746) 
A A A A A A A A A A A Z Z Z Z Z Z Z Z Z

>  <atom.prop.IS_HEAVY_ATOM>  (746) 
1 0 0 0 1 0 0 1 0 0 0 1 0 0 0 1 1 0 0 0

>  <DIFUSE_FUNC_ATOM>  (746) 
n/a

>  <FINAL_SINGLE_POINT_ENERGY>  (746) 
0

>  <NONCOV_INTER_ENERGY_QM>  (746) 
0

>  <FF_Energy>  (746) 
2.11

>  <QM_Energy>  (746) 
-3.0

>  <source>  (746) 
ETAM_MSM

>  <Index>  (746) 
4524

$$$$
ETAM-pdb3aei-B-LYS-74:MSM-pdb3aei-B-MET-27
     RDKit          3D

 20 18  0  0  0  0  0  0  0  0999 V2000
    1.2691    0.8728   -0.0000 C   0  0  0  0  0  0  0  0  0  0  0  0
    1.2395    1.4654   -0.7998 H   0  0  0  0  0  0  0  0  0  0  0  0
    2.0600    0.2705   -0.0454 H   0  0  0  0  0  0  0  0  0  0  0  0
    1.3466    1.4912    0.8942 H   0  0  0  0  0  0  0  0  0  0  0  0
    0.0000    0.0000    0.0000 C   0  0  0  0  0  0  0  0  0  0  0  0
    0.0242   -0.5941   -0.8166 H   0  0  0  0  0  0  0  0  0  0  0  0
    0.0240   -0.5934    0.8159 H   0  0  0  0  0  0  0  0  0  0  0  0
   -1.2691    0.7833    0.0000 N   0  0  0  0  0  4  0  0  0  0  0  0
   -2.0430    0.1584    0.0939 H   0  0  0  0  0  0  0  0  0  0  0  0
   -1.2611    1.4242    0.7662 H   0  0  0  0  0  0  0  0  0  0  0  0
   -1.3454    1.2871   -0.8591 H   0  0  0  0  0  0  0  0  0  0  0  0
    0.8916   -3.1320    1.9057 C   0  0  0  0  0  0  0  0  0  0  0  0
    0.3877   -3.3839    1.0712 H   0  0  0  0  0  0  0  0  0  0  0  0
    0.2237   -2.9393    2.6343 H   0  0  0  0  0  0  0  0  0  0  0  0
    1.5414   -3.9537    2.2069 H   0  0  0  0  0  0  0  0  0  0  0  0
    1.9380   -1.7322    1.6169 S   0  0  0  0  0  0  0  0  0  0  0  0
    2.2462   -1.2444    3.3157 C   0  0  0  0  0  0  0  0  0  0  0  0
    1.5528   -0.5829    3.6043 H   0  0  0  0  0  0  0  0  0  0  0  0
    2.2037   -2.0501    3.9079 H   0  0  0  0  0  0  0  0  0  0  0  0
    3.1533   -0.8275    3.3849 H   0  0  0  0  0  0  0  0  0  0  0  0
  1  5  1  0
  5  8  1  0
  1  2  1  0
  1  3  1  0
  1  4  1  0
  5  6  1  0
  5  7  1  0
  8  9  1  0
  8 10  1  0
  8 11  1  0
 12 16  1  0
 16 17  1  0
 12 13  1  0
 12 14  1  0
 12 15  1  0
 17 18  1  0
 17 19  1  0
 17 20  1  0
M  CHG  1   8   1
M  END
>  <PDB_ID>  (747) 
pdb3aei

>  <RESIDUE_NAME>  (747) 
LYS   MET

>  <FRAG_NAME>  (747) 
ETAM   MSM

>  <FRAG_ATOM_NUM>  (747) 
fragi: 11  fragj: 9

>  <atom.prop.CHAIN_ID>  (747) 
A A A A A A A A A A A Z Z Z Z Z Z Z Z Z

>  <atom.prop.IS_HEAVY_ATOM>  (747) 
1 0 0 0 1 0 0 1 0 0 0 1 0 0 0 1 1 0 0 0

>  <DIFUSE_FUNC_ATOM>  (747) 
n/a

>  <FINAL_SINGLE_POINT_ENERGY>  (747) 
0

>  <NONCOV_INTER_ENERGY_QM>  (747) 
0

>  <FF_Energy>  (747) 
7.4

>  <QM_Energy>  (747) 
-3.01

>  <source>  (747) 
ETAM_MSM

>  <Index>  (747) 
4528

$$$$
ETAM-pdb3afa-E-LYS-64:MSM-pdb3afa-E-MET-90
     RDKit          3D

 20 18  0  0  0  0  0  0  0  0999 V2000
    1.2534    0.8797   -0.0000 C   0  0  0  0  0  0  0  0  0  0  0  0
    2.0509    0.2937   -0.0363 H   0  0  0  0  0  0  0  0  0  0  0  0
    1.2523    1.4296    0.8234 H   0  0  0  0  0  0  0  0  0  0  0  0
    1.2671    1.5427   -0.8650 H   0  0  0  0  0  0  0  0  0  0  0  0
    0.0000    0.0000    0.0000 C   0  0  0  0  0  0  0  0  0  0  0  0
    0.0126   -0.5792   -0.8163 H   0  0  0  0  0  0  0  0  0  0  0  0
    0.0129   -0.5798    0.8165 H   0  0  0  0  0  0  0  0  0  0  0  0
   -1.2534    0.8197    0.0000 N   0  0  0  0  0  4  0  0  0  0  0  0
   -1.9054    0.4200   -0.6408 H   0  0  0  0  0  0  0  0  0  0  0  0
   -1.6416    0.8234    0.9196 H   0  0  0  0  0  0  0  0  0  0  0  0
   -1.0339    1.7530   -0.2779 H   0  0  0  0  0  0  0  0  0  0  0  0
   -1.7966   -2.1113   -5.0236 C   0  0  0  0  0  0  0  0  0  0  0  0
   -1.5499   -1.7333   -5.9444 H   0  0  0  0  0  0  0  0  0  0  0  0
   -2.7702   -1.8296   -4.8639 H   0  0  0  0  0  0  0  0  0  0  0  0
   -1.7477   -3.1993   -5.0669 H   0  0  0  0  0  0  0  0  0  0  0  0
   -0.7158   -1.3948   -3.7392 S   0  0  0  0  0  0  0  0  0  0  0  0
   -1.5250   -1.9986   -2.2510 C   0  0  0  0  0  0  0  0  0  0  0  0
   -2.5121   -1.8635   -2.3318 H   0  0  0  0  0  0  0  0  0  0  0  0
   -1.3290   -2.9723   -2.1377 H   0  0  0  0  0  0  0  0  0  0  0  0
   -1.1822   -1.4941   -1.4585 H   0  0  0  0  0  0  0  0  0  0  0  0
  1  5  1  0
  5  8  1  0
  1  2  1  0
  1  3  1  0
  1  4  1  0
  5  6  1  0
  5  7  1  0
  8  9  1  0
  8 10  1  0
  8 11  1  0
 12 16  1  0
 16 17  1  0
 12 13  1  0
 12 14  1  0
 12 15  1  0
 17 18  1  0
 17 19  1  0
 17 20  1  0
M  CHG  1   8   1
M  END
>  <PDB_ID>  (748) 
pdb3afa

>  <RESIDUE_NAME>  (748) 
LYS   MET

>  <FRAG_NAME>  (748) 
ETAM   MSM

>  <FRAG_ATOM_NUM>  (748) 
fragi: 11  fragj: 9

>  <atom.prop.CHAIN_ID>  (748) 
A A A A A A A A A A A Z Z Z Z Z Z Z Z Z

>  <atom.prop.IS_HEAVY_ATOM>  (748) 
1 0 0 0 1 0 0 1 0 0 0 1 0 0 0 1 1 0 0 0

>  <DIFUSE_FUNC_ATOM>  (748) 
n/a

>  <FINAL_SINGLE_POINT_ENERGY>  (748) 
0

>  <NONCOV_INTER_ENERGY_QM>  (748) 
0

>  <FF_Energy>  (748) 
10.89

>  <QM_Energy>  (748) 
-0.4

>  <source>  (748) 
ETAM_MSM

>  <Index>  (748) 
4529

$$$$
ETAM-pdb3afm-A-LYS-126:MSM-pdb3afm-A-MET-123
     RDKit          3D

 20 18  0  0  0  0  0  0  0  0999 V2000
    1.2284    0.8727    0.0000 C   0  0  0  0  0  0  0  0  0  0  0  0
    1.0602    1.6644    0.5827 H   0  0  0  0  0  0  0  0  0  0  0  0
    1.4104    1.1712   -0.9336 H   0  0  0  0  0  0  0  0  0  0  0  0
    2.1006    0.3381    0.3762 H   0  0  0  0  0  0  0  0  0  0  0  0
    0.0000    0.0000    0.0000 C   0  0  0  0  0  0  0  0  0  0  0  0
    0.0032   -0.5764   -0.8163 H   0  0  0  0  0  0  0  0  0  0  0  0
    0.0028   -0.5764    0.8166 H   0  0  0  0  0  0  0  0  0  0  0  0
   -1.2284    0.8370   -0.0000 N   0  0  0  0  0  4  0  0  0  0  0  0
   -1.8692    0.4882    0.6838 H   0  0  0  0  0  0  0  0  0  0  0  0
   -0.9875    1.7817    0.2200 H   0  0  0  0  0  0  0  0  0  0  0  0
   -1.6543    0.8027   -0.9044 H   0  0  0  0  0  0  0  0  0  0  0  0
   -1.1048   -2.3270   -4.4278 C   0  0  0  0  0  0  0  0  0  0  0  0
   -0.7050   -2.2496   -5.3767 H   0  0  0  0  0  0  0  0  0  0  0  0
   -2.0847   -2.6114   -4.5823 H   0  0  0  0  0  0  0  0  0  0  0  0
   -0.5933   -3.1384   -3.9099 H   0  0  0  0  0  0  0  0  0  0  0  0
   -1.0312   -0.7323   -3.5734 S   0  0  0  0  0  0  0  0  0  0  0  0
   -1.7949    0.3255   -4.8075 C   0  0  0  0  0  0  0  0  0  0  0  0
   -1.1704    1.0721   -5.0387 H   0  0  0  0  0  0  0  0  0  0  0  0
   -1.9929   -0.2096   -5.6285 H   0  0  0  0  0  0  0  0  0  0  0  0
   -2.6456    0.7031   -4.4420 H   0  0  0  0  0  0  0  0  0  0  0  0
  1  5  1  0
  5  8  1  0
  1  2  1  0
  1  3  1  0
  1  4  1  0
  5  6  1  0
  5  7  1  0
  8  9  1  0
  8 10  1  0
  8 11  1  0
 12 16  1  0
 16 17  1  0
 12 13  1  0
 12 14  1  0
 12 15  1  0
 17 18  1  0
 17 19  1  0
 17 20  1  0
M  CHG  1   8   1
M  END
>  <PDB_ID>  (749) 
pdb3afm

>  <RESIDUE_NAME>  (749) 
LYS   MET

>  <FRAG_NAME>  (749) 
ETAM   MSM

>  <FRAG_ATOM_NUM>  (749) 
fragi: 11  fragj: 9

>  <atom.prop.CHAIN_ID>  (749) 
A A A A A A A A A A A Z Z Z Z Z Z Z Z Z

>  <atom.prop.IS_HEAVY_ATOM>  (749) 
1 0 0 0 1 0 0 1 0 0 0 1 0 0 0 1 1 0 0 0

>  <DIFUSE_FUNC_ATOM>  (749) 
n/a

>  <FINAL_SINGLE_POINT_ENERGY>  (749) 
0

>  <NONCOV_INTER_ENERGY_QM>  (749) 
0

>  <FF_Energy>  (749) 
-4.96

>  <QM_Energy>  (749) 
-11.44

>  <source>  (749) 
ETAM_MSM

>  <Index>  (749) 
4533

$$$$
ETAM-pdb3afm-B-LYS-126:MSM-pdb3afm-B-MET-123
     RDKit          3D

 20 18  0  0  0  0  0  0  0  0999 V2000
    1.2271    0.8769   -0.0000 C   0  0  0  0  0  0  0  0  0  0  0  0
    1.0786    1.6384    0.6252 H   0  0  0  0  0  0  0  0  0  0  0  0
    1.3786    1.2183   -0.9238 H   0  0  0  0  0  0  0  0  0  0  0  0
    2.1112    0.3265    0.3216 H   0  0  0  0  0  0  0  0  0  0  0  0
    0.0000    0.0000    0.0000 C   0  0  0  0  0  0  0  0  0  0  0  0
    0.0024   -0.5719   -0.8166 H   0  0  0  0  0  0  0  0  0  0  0  0
    0.0025   -0.5729    0.8167 H   0  0  0  0  0  0  0  0  0  0  0  0
   -1.2271    0.8441    0.0000 N   0  0  0  0  0  4  0  0  0  0  0  0
   -0.9714    1.8003   -0.1404 H   0  0  0  0  0  0  0  0  0  0  0  0
   -1.8332    0.5479   -0.7372 H   0  0  0  0  0  0  0  0  0  0  0  0
   -1.6949    0.7481    0.8781 H   0  0  0  0  0  0  0  0  0  0  0  0
   -1.2443   -2.1337   -4.4090 C   0  0  0  0  0  0  0  0  0  0  0  0
   -0.8962   -2.0817   -5.3739 H   0  0  0  0  0  0  0  0  0  0  0  0
   -2.2391   -2.3766   -4.4930 H   0  0  0  0  0  0  0  0  0  0  0  0
   -0.7349   -2.9581   -3.9101 H   0  0  0  0  0  0  0  0  0  0  0  0
   -1.0426   -0.5398   -3.5668 S   0  0  0  0  0  0  0  0  0  0  0  0
   -1.9017    0.5639   -4.6906 C   0  0  0  0  0  0  0  0  0  0  0  0
   -2.7800    0.1606   -4.9495 H   0  0  0  0  0  0  0  0  0  0  0  0
   -2.0599    1.4427   -4.2401 H   0  0  0  0  0  0  0  0  0  0  0  0
   -1.3453    0.7051   -5.5101 H   0  0  0  0  0  0  0  0  0  0  0  0
  1  5  1  0
  5  8  1  0
  1  2  1  0
  1  3  1  0
  1  4  1  0
  5  6  1  0
  5  7  1  0
  8  9  1  0
  8 10  1  0
  8 11  1  0
 12 16  1  0
 16 17  1  0
 12 13  1  0
 12 14  1  0
 12 15  1  0
 17 18  1  0
 17 19  1  0
 17 20  1  0
M  CHG  1   8   1
M  END
>  <PDB_ID>  (750) 
pdb3afm

>  <RESIDUE_NAME>  (750) 
LYS   MET

>  <FRAG_NAME>  (750) 
ETAM   MSM

>  <FRAG_ATOM_NUM>  (750) 
fragi: 11  fragj: 9

>  <atom.prop.CHAIN_ID>  (750) 
A A A A A A A A A A A Z Z Z Z Z Z Z Z Z

>  <atom.prop.IS_HEAVY_ATOM>  (750) 
1 0 0 0 1 0 0 1 0 0 0 1 0 0 0 1 1 0 0 0

>  <DIFUSE_FUNC_ATOM>  (750) 
n/a

>  <FINAL_SINGLE_POINT_ENERGY>  (750) 
0

>  <NONCOV_INTER_ENERGY_QM>  (750) 
0

>  <FF_Energy>  (750) 
-4.97

>  <QM_Energy>  (750) 
-12.18

>  <source>  (750) 
ETAM_MSM

>  <Index>  (750) 
4534

$$$$
ETAM-pdb3agk-A-LYS-14:MSM-pdb3agk-A-MET-136
     RDKit          3D

 20 18  0  0  0  0  0  0  0  0999 V2000
    1.2531    0.8608   -0.0000 C   0  0  0  0  0  0  0  0  0  0  0  0
    1.3283    1.3100    0.8815 H   0  0  0  0  0  0  0  0  0  0  0  0
    1.1778    1.5280   -0.7298 H   0  0  0  0  0  0  0  0  0  0  0  0
    2.1404    0.2495   -0.1647 H   0  0  0  0  0  0  0  0  0  0  0  0
    0.0000    0.0000    0.0000 C   0  0  0  0  0  0  0  0  0  0  0  0
    0.0095   -0.5901   -0.8164 H   0  0  0  0  0  0  0  0  0  0  0  0
    0.0094   -0.5895    0.8161 H   0  0  0  0  0  0  0  0  0  0  0  0
   -1.2531    0.8082    0.0000 N   0  0  0  0  0  4  0  0  0  0  0  0
   -2.0410    0.1955   -0.0304 H   0  0  0  0  0  0  0  0  0  0  0  0
   -1.2895    1.3615    0.8311 H   0  0  0  0  0  0  0  0  0  0  0  0
   -1.2607    1.4050   -0.8008 H   0  0  0  0  0  0  0  0  0  0  0  0
   -1.2376   -0.7267   -3.0608 C   0  0  0  0  0  0  0  0  0  0  0  0
   -0.9433   -1.7092   -2.8941 H   0  0  0  0  0  0  0  0  0  0  0  0
   -0.5788   -0.1737   -2.4771 H   0  0  0  0  0  0  0  0  0  0  0  0
   -1.0293   -0.4931   -4.1049 H   0  0  0  0  0  0  0  0  0  0  0  0
   -2.9461   -0.4701   -2.5120 S   0  0  0  0  0  0  0  0  0  0  0  0
   -2.9831   -1.4794   -1.0268 C   0  0  0  0  0  0  0  0  0  0  0  0
   -3.9223   -1.7726   -0.8460 H   0  0  0  0  0  0  0  0  0  0  0  0
   -2.4012   -2.2831   -1.1557 H   0  0  0  0  0  0  0  0  0  0  0  0
   -2.6459   -0.9445   -0.2523 H   0  0  0  0  0  0  0  0  0  0  0  0
  1  5  1  0
  5  8  1  0
  1  2  1  0
  1  3  1  0
  1  4  1  0
  5  6  1  0
  5  7  1  0
  8  9  1  0
  8 10  1  0
  8 11  1  0
 12 16  1  0
 16 17  1  0
 12 13  1  0
 12 14  1  0
 12 15  1  0
 17 18  1  0
 17 19  1  0
 17 20  1  0
M  CHG  1   8   1
M  END
>  <PDB_ID>  (751) 
pdb3agk

>  <RESIDUE_NAME>  (751) 
LYS   MET

>  <FRAG_NAME>  (751) 
ETAM   MSM

>  <FRAG_ATOM_NUM>  (751) 
fragi: 11  fragj: 9

>  <atom.prop.CHAIN_ID>  (751) 
A A A A A A A A A A A Z Z Z Z Z Z Z Z Z

>  <atom.prop.IS_HEAVY_ATOM>  (751) 
1 0 0 0 1 0 0 1 0 0 0 1 0 0 0 1 1 0 0 0

>  <DIFUSE_FUNC_ATOM>  (751) 
n/a

>  <FINAL_SINGLE_POINT_ENERGY>  (751) 
0

>  <NONCOV_INTER_ENERGY_QM>  (751) 
0

>  <FF_Energy>  (751) 
8.7

>  <QM_Energy>  (751) 
0.98

>  <source>  (751) 
ETAM_MSM

>  <Index>  (751) 
4539

$$$$
ETAM-pdb1wcg-A-LYS-356:MSM-pdb1wcg-A-MET-231
     RDKit          3D

 20 18  0  0  0  0  0  0  0  0999 V2000
    1.2334    0.8762    0.0000 C   0  0  0  0  0  0  0  0  0  0  0  0
    1.1442    1.5525    0.7292 H   0  0  0  0  0  0  0  0  0  0  0  0
    1.2955    1.3396   -0.8826 H   0  0  0  0  0  0  0  0  0  0  0  0
    2.1453    0.3015    0.1622 H   0  0  0  0  0  0  0  0  0  0  0  0
    0.0000    0.0000    0.0000 C   0  0  0  0  0  0  0  0  0  0  0  0
    0.0085   -0.5780   -0.8164 H   0  0  0  0  0  0  0  0  0  0  0  0
    0.0081   -0.5777    0.8164 H   0  0  0  0  0  0  0  0  0  0  0  0
   -1.2334    0.8275   -0.0000 N   0  0  0  0  0  4  0  0  0  0  0  0
   -1.8202    0.5506    0.7610 H   0  0  0  0  0  0  0  0  0  0  0  0
   -0.9883    1.7919    0.1019 H   0  0  0  0  0  0  0  0  0  0  0  0
   -1.7214    0.6968   -0.8625 H   0  0  0  0  0  0  0  0  0  0  0  0
    1.0651    5.2047   -1.2395 C   0  0  0  0  0  0  0  0  0  0  0  0
    1.5212    4.5590   -1.9201 H   0  0  0  0  0  0  0  0  0  0  0  0
    1.8171    5.8965   -1.0317 H   0  0  0  0  0  0  0  0  0  0  0  0
    0.2689    5.7303   -1.7666 H   0  0  0  0  0  0  0  0  0  0  0  0
    0.5755    4.3293    0.2418 S   0  0  0  0  0  0  0  0  0  0  0  0
    0.3650    5.6864    1.3654 C   0  0  0  0  0  0  0  0  0  0  0  0
   -0.2349    5.4158    2.1231 H   0  0  0  0  0  0  0  0  0  0  0  0
    1.2545    5.9650    1.7384 H   0  0  0  0  0  0  0  0  0  0  0  0
   -0.0464    6.4678    0.8880 H   0  0  0  0  0  0  0  0  0  0  0  0
  1  5  1  0
  5  8  1  0
  1  2  1  0
  1  3  1  0
  1  4  1  0
  5  6  1  0
  5  7  1  0
  8  9  1  0
  8 10  1  0
  8 11  1  0
 12 16  1  0
 16 17  1  0
 12 13  1  0
 12 14  1  0
 12 15  1  0
 17 18  1  0
 17 19  1  0
 17 20  1  0
M  CHG  1   8   1
M  END
>  <PDB_ID>  (752) 
pdb1wcg

>  <RESIDUE_NAME>  (752) 
LYS   MET

>  <FRAG_NAME>  (752) 
ETAM   MSM

>  <FRAG_ATOM_NUM>  (752) 
fragi: 11  fragj: 9

>  <atom.prop.CHAIN_ID>  (752) 
A A A A A A A A A A A Z Z Z Z Z Z Z Z Z

>  <atom.prop.IS_HEAVY_ATOM>  (752) 
1 0 0 0 1 0 0 1 0 0 0 1 0 0 0 1 1 0 0 0

>  <DIFUSE_FUNC_ATOM>  (752) 
n/a

>  <FINAL_SINGLE_POINT_ENERGY>  (752) 
0

>  <NONCOV_INTER_ENERGY_QM>  (752) 
0

>  <FF_Energy>  (752) 
-4.87

>  <QM_Energy>  (752) 
-11.74

>  <source>  (752) 
ETAM_MSM

>  <Index>  (752) 
4541

$$$$
ETAM-pdb1wcg-B-LYS-356:MSM-pdb1wcg-B-MET-231
     RDKit          3D

 20 18  0  0  0  0  0  0  0  0999 V2000
    1.2377    0.8720    0.0000 C   0  0  0  0  0  0  0  0  0  0  0  0
    1.1656    1.5247    0.7521 H   0  0  0  0  0  0  0  0  0  0  0  0
    1.2812    1.3616   -0.8688 H   0  0  0  0  0  0  0  0  0  0  0  0
    2.1483    0.2858    0.1245 H   0  0  0  0  0  0  0  0  0  0  0  0
    0.0000    0.0000    0.0000 C   0  0  0  0  0  0  0  0  0  0  0  0
    0.0068   -0.5791   -0.8166 H   0  0  0  0  0  0  0  0  0  0  0  0
    0.0068   -0.5796    0.8161 H   0  0  0  0  0  0  0  0  0  0  0  0
   -1.2377    0.8277    0.0000 N   0  0  0  0  0  4  0  0  0  0  0  0
   -1.7060    0.7237   -0.8766 H   0  0  0  0  0  0  0  0  0  0  0  0
   -1.8388    0.5251    0.7388 H   0  0  0  0  0  0  0  0  0  0  0  0
   -0.9949    1.7876    0.1381 H   0  0  0  0  0  0  0  0  0  0  0  0
    1.0250    5.1645   -0.8510 C   0  0  0  0  0  0  0  0  0  0  0  0
    1.4474    4.5340   -1.5573 H   0  0  0  0  0  0  0  0  0  0  0  0
    1.7811    5.8429   -0.6396 H   0  0  0  0  0  0  0  0  0  0  0  0
    0.2101    5.7073   -1.3300 H   0  0  0  0  0  0  0  0  0  0  0  0
    0.5570    4.2525    0.6191 S   0  0  0  0  0  0  0  0  0  0  0  0
    0.2250    5.5938    1.7448 C   0  0  0  0  0  0  0  0  0  0  0  0
    0.5120    5.3393    2.6715 H   0  0  0  0  0  0  0  0  0  0  0  0
    0.7294    6.4115    1.4582 H   0  0  0  0  0  0  0  0  0  0  0  0
   -0.7562    5.7988    1.7499 H   0  0  0  0  0  0  0  0  0  0  0  0
  1  5  1  0
  5  8  1  0
  1  2  1  0
  1  3  1  0
  1  4  1  0
  5  6  1  0
  5  7  1  0
  8  9  1  0
  8 10  1  0
  8 11  1  0
 12 16  1  0
 16 17  1  0
 12 13  1  0
 12 14  1  0
 12 15  1  0
 17 18  1  0
 17 19  1  0
 17 20  1  0
M  CHG  1   8   1
M  END
>  <PDB_ID>  (753) 
pdb1wcg

>  <RESIDUE_NAME>  (753) 
LYS   MET

>  <FRAG_NAME>  (753) 
ETAM   MSM

>  <FRAG_ATOM_NUM>  (753) 
fragi: 11  fragj: 9

>  <atom.prop.CHAIN_ID>  (753) 
A A A A A A A A A A A Z Z Z Z Z Z Z Z Z

>  <atom.prop.IS_HEAVY_ATOM>  (753) 
1 0 0 0 1 0 0 1 0 0 0 1 0 0 0 1 1 0 0 0

>  <DIFUSE_FUNC_ATOM>  (753) 
n/a

>  <FINAL_SINGLE_POINT_ENERGY>  (753) 
0

>  <NONCOV_INTER_ENERGY_QM>  (753) 
0

>  <FF_Energy>  (753) 
-4.71

>  <QM_Energy>  (753) 
-12.08

>  <source>  (753) 
ETAM_MSM

>  <Index>  (753) 
4550

$$$$
ETAM-pdb3ajv-A-LYS-12:MSM-pdb3ajv-A-MET-60
     RDKit          3D

 20 18  0  0  0  0  0  0  0  0999 V2000
    1.2380    0.8821   -0.0000 C   0  0  0  0  0  0  0  0  0  0  0  0
    1.0607    1.6787    0.5656 H   0  0  0  0  0  0  0  0  0  0  0  0
    1.4356    1.1519   -0.9344 H   0  0  0  0  0  0  0  0  0  0  0  0
    2.0978    0.3471    0.4034 H   0  0  0  0  0  0  0  0  0  0  0  0
    0.0000    0.0000    0.0000 C   0  0  0  0  0  0  0  0  0  0  0  0
    0.0081   -0.5742   -0.8160 H   0  0  0  0  0  0  0  0  0  0  0  0
    0.0081   -0.5741    0.8167 H   0  0  0  0  0  0  0  0  0  0  0  0
   -1.2380    0.8334    0.0000 N   0  0  0  0  0  4  0  0  0  0  0  0
   -1.3607    1.2410    0.9039 H   0  0  0  0  0  0  0  0  0  0  0  0
   -1.1499    1.5548   -0.6855 H   0  0  0  0  0  0  0  0  0  0  0  0
   -2.0237    0.2560   -0.2177 H   0  0  0  0  0  0  0  0  0  0  0  0
    0.4505    3.3313    3.4833 C   0  0  0  0  0  0  0  0  0  0  0  0
    0.0817    3.8085    4.3033 H   0  0  0  0  0  0  0  0  0  0  0  0
    0.0462    3.7927    2.6710 H   0  0  0  0  0  0  0  0  0  0  0  0
    1.5310    3.4731    3.4590 H   0  0  0  0  0  0  0  0  0  0  0  0
    0.0366    1.5878    3.5091 S   0  0  0  0  0  0  0  0  0  0  0  0
    0.2789    1.1839    5.2416 C   0  0  0  0  0  0  0  0  0  0  0  0
    0.7380    1.9455    5.7008 H   0  0  0  0  0  0  0  0  0  0  0  0
   -0.6088    1.0202    5.6731 H   0  0  0  0  0  0  0  0  0  0  0  0
    0.8431    0.3611    5.3165 H   0  0  0  0  0  0  0  0  0  0  0  0
  1  5  1  0
  5  8  1  0
  1  2  1  0
  1  3  1  0
  1  4  1  0
  5  6  1  0
  5  7  1  0
  8  9  1  0
  8 10  1  0
  8 11  1  0
 12 16  1  0
 16 17  1  0
 12 13  1  0
 12 14  1  0
 12 15  1  0
 17 18  1  0
 17 19  1  0
 17 20  1  0
M  CHG  1   8   1
M  END
>  <PDB_ID>  (754) 
pdb3ajv

>  <RESIDUE_NAME>  (754) 
LYS   MET

>  <FRAG_NAME>  (754) 
ETAM   MSM

>  <FRAG_ATOM_NUM>  (754) 
fragi: 11  fragj: 9

>  <atom.prop.CHAIN_ID>  (754) 
A A A A A A A A A A A Z Z Z Z Z Z Z Z Z

>  <atom.prop.IS_HEAVY_ATOM>  (754) 
1 0 0 0 1 0 0 1 0 0 0 1 0 0 0 1 1 0 0 0

>  <DIFUSE_FUNC_ATOM>  (754) 
n/a

>  <FINAL_SINGLE_POINT_ENERGY>  (754) 
0

>  <NONCOV_INTER_ENERGY_QM>  (754) 
0

>  <FF_Energy>  (754) 
-5.4

>  <QM_Energy>  (754) 
-11.96

>  <source>  (754) 
ETAM_MSM

>  <Index>  (754) 
4553

$$$$
ETAM-pdb3al9-A-LYS-456:MSM-pdb3al9-A-MET-472
     RDKit          3D

 20 18  0  0  0  0  0  0  0  0999 V2000
    1.2315    0.8899    0.0000 C   0  0  0  0  0  0  0  0  0  0  0  0
    2.0152    0.3454    0.2893 H   0  0  0  0  0  0  0  0  0  0  0  0
    1.0812    1.6371    0.6422 H   0  0  0  0  0  0  0  0  0  0  0  0
    1.4331    1.3047   -0.9876 H   0  0  0  0  0  0  0  0  0  0  0  0
    0.0000    0.0000    0.0000 C   0  0  0  0  0  0  0  0  0  0  0  0
    0.0155   -0.5751   -0.8163 H   0  0  0  0  0  0  0  0  0  0  0  0
    0.0149   -0.5747    0.8162 H   0  0  0  0  0  0  0  0  0  0  0  0
   -1.2315    0.8240   -0.0000 N   0  0  0  0  0  4  0  0  0  0  0  0
   -1.1213    1.5914    0.6331 H   0  0  0  0  0  0  0  0  0  0  0  0
   -1.3995    1.1749   -0.9215 H   0  0  0  0  0  0  0  0  0  0  0  0
   -2.0091    0.2637    0.2887 H   0  0  0  0  0  0  0  0  0  0  0  0
   -0.7649    1.9503   -4.7556 C   0  0  0  0  0  0  0  0  0  0  0  0
   -0.8321    1.7205   -5.7628 H   0  0  0  0  0  0  0  0  0  0  0  0
    0.2537    1.9549   -4.5666 H   0  0  0  0  0  0  0  0  0  0  0  0
   -1.1233    2.9722   -4.6315 H   0  0  0  0  0  0  0  0  0  0  0  0
   -1.6042    0.7056   -3.7495 S   0  0  0  0  0  0  0  0  0  0  0  0
   -3.2432    0.6917   -4.4816 C   0  0  0  0  0  0  0  0  0  0  0  0
   -3.1735    0.4556   -5.4513 H   0  0  0  0  0  0  0  0  0  0  0  0
   -3.8123    0.0152   -4.0140 H   0  0  0  0  0  0  0  0  0  0  0  0
   -3.6578    1.5970   -4.3886 H   0  0  0  0  0  0  0  0  0  0  0  0
  1  5  1  0
  5  8  1  0
  1  2  1  0
  1  3  1  0
  1  4  1  0
  5  6  1  0
  5  7  1  0
  8  9  1  0
  8 10  1  0
  8 11  1  0
 12 16  1  0
 16 17  1  0
 12 13  1  0
 12 14  1  0
 12 15  1  0
 17 18  1  0
 17 19  1  0
 17 20  1  0
M  CHG  1   8   1
M  END
>  <PDB_ID>  (755) 
pdb3al9

>  <RESIDUE_NAME>  (755) 
LYS   MET

>  <FRAG_NAME>  (755) 
ETAM   MSM

>  <FRAG_ATOM_NUM>  (755) 
fragi: 11  fragj: 9

>  <atom.prop.CHAIN_ID>  (755) 
A A A A A A A A A A A Z Z Z Z Z Z Z Z Z

>  <atom.prop.IS_HEAVY_ATOM>  (755) 
1 0 0 0 1 0 0 1 0 0 0 1 0 0 0 1 1 0 0 0

>  <DIFUSE_FUNC_ATOM>  (755) 
n/a

>  <FINAL_SINGLE_POINT_ENERGY>  (755) 
0

>  <NONCOV_INTER_ENERGY_QM>  (755) 
0

>  <FF_Energy>  (755) 
-5.25

>  <QM_Energy>  (755) 
-13.85

>  <source>  (755) 
ETAM_MSM

>  <Index>  (755) 
4560

$$$$
ETAM-pdb3al9-B-LYS-456:MSM-pdb3al9-B-MET-472
     RDKit          3D

 20 18  0  0  0  0  0  0  0  0999 V2000
    1.2294    0.9072    0.0000 C   0  0  0  0  0  0  0  0  0  0  0  0
    2.0356    0.3547    0.1906 H   0  0  0  0  0  0  0  0  0  0  0  0
    1.1155    1.6017    0.7043 H   0  0  0  0  0  0  0  0  0  0  0  0
    1.3799    1.4105   -0.9551 H   0  0  0  0  0  0  0  0  0  0  0  0
    0.0000    0.0000    0.0000 C   0  0  0  0  0  0  0  0  0  0  0  0
    0.0263   -0.5715   -0.8160 H   0  0  0  0  0  0  0  0  0  0  0  0
    0.0260   -0.5717    0.8160 H   0  0  0  0  0  0  0  0  0  0  0  0
   -1.2294    0.8157    0.0000 N   0  0  0  0  0  4  0  0  0  0  0  0
   -1.4456    1.1015    0.9353 H   0  0  0  0  0  0  0  0  0  0  0  0
   -1.0962    1.6282   -0.5700 H   0  0  0  0  0  0  0  0  0  0  0  0
   -1.9913    0.2782   -0.3651 H   0  0  0  0  0  0  0  0  0  0  0  0
   -0.4429    1.8847   -4.7999 C   0  0  0  0  0  0  0  0  0  0  0  0
   -0.4936    1.6374   -5.8015 H   0  0  0  0  0  0  0  0  0  0  0  0
    0.5688    1.9415   -4.6003 H   0  0  0  0  0  0  0  0  0  0  0  0
   -0.8587    2.8858   -4.6864 H   0  0  0  0  0  0  0  0  0  0  0  0
   -1.2310    0.6137   -3.7811 S   0  0  0  0  0  0  0  0  0  0  0  0
   -2.8801    0.5476   -4.4916 C   0  0  0  0  0  0  0  0  0  0  0  0
   -2.8115    0.4154   -5.4805 H   0  0  0  0  0  0  0  0  0  0  0  0
   -3.3868   -0.2142   -4.0871 H   0  0  0  0  0  0  0  0  0  0  0  0
   -3.3587    1.4054   -4.3025 H   0  0  0  0  0  0  0  0  0  0  0  0
  1  5  1  0
  5  8  1  0
  1  2  1  0
  1  3  1  0
  1  4  1  0
  5  6  1  0
  5  7  1  0
  8  9  1  0
  8 10  1  0
  8 11  1  0
 12 16  1  0
 16 17  1  0
 12 13  1  0
 12 14  1  0
 12 15  1  0
 17 18  1  0
 17 19  1  0
 17 20  1  0
M  CHG  1   8   1
M  END
>  <PDB_ID>  (756) 
pdb3al9

>  <RESIDUE_NAME>  (756) 
LYS   MET

>  <FRAG_NAME>  (756) 
ETAM   MSM

>  <FRAG_ATOM_NUM>  (756) 
fragi: 11  fragj: 9

>  <atom.prop.CHAIN_ID>  (756) 
A A A A A A A A A A A Z Z Z Z Z Z Z Z Z

>  <atom.prop.IS_HEAVY_ATOM>  (756) 
1 0 0 0 1 0 0 1 0 0 0 1 0 0 0 1 1 0 0 0

>  <DIFUSE_FUNC_ATOM>  (756) 
n/a

>  <FINAL_SINGLE_POINT_ENERGY>  (756) 
0

>  <NONCOV_INTER_ENERGY_QM>  (756) 
0

>  <FF_Energy>  (756) 
-5.03

>  <QM_Energy>  (756) 
-11.79

>  <source>  (756) 
ETAM_MSM

>  <Index>  (756) 
4562

$$$$
ETAM-pdb1wn1-A-LYS-5:MSM-pdb1wn1-A-MET-1
     RDKit          3D

 20 18  0  0  0  0  0  0  0  0999 V2000
    1.2383    0.8796   -0.0000 C   0  0  0  0  0  0  0  0  0  0  0  0
    2.0315    0.3158   -0.1683 H   0  0  0  0  0  0  0  0  0  0  0  0
    1.3002    1.3446    0.8687 H   0  0  0  0  0  0  0  0  0  0  0  0
    1.1626    1.6240   -0.7926 H   0  0  0  0  0  0  0  0  0  0  0  0
    0.0000    0.0000    0.0000 C   0  0  0  0  0  0  0  0  0  0  0  0
    0.0006   -0.5684   -0.8164 H   0  0  0  0  0  0  0  0  0  0  0  0
    0.0002   -0.5694    0.8160 H   0  0  0  0  0  0  0  0  0  0  0  0
   -1.2383    0.8514    0.0000 N   0  0  0  0  0  4  0  0  0  0  0  0
   -2.0226    0.2833    0.2367 H   0  0  0  0  0  0  0  0  0  0  0  0
   -1.1306    1.5800    0.6727 H   0  0  0  0  0  0  0  0  0  0  0  0
   -1.3624    1.2426   -0.9084 H   0  0  0  0  0  0  0  0  0  0  0  0
    0.6708   -1.6848   -2.9061 C   0  0  0  0  0  0  0  0  0  0  0  0
    1.3434   -1.1186   -2.3663 H   0  0  0  0  0  0  0  0  0  0  0  0
   -0.0235   -1.0033   -3.2525 H   0  0  0  0  0  0  0  0  0  0  0  0
    1.1907   -2.1134   -3.7629 H   0  0  0  0  0  0  0  0  0  0  0  0
   -0.1185   -2.9102   -1.8465 S   0  0  0  0  0  0  0  0  0  0  0  0
   -1.2944   -3.6844   -2.9954 C   0  0  0  0  0  0  0  0  0  0  0  0
   -2.1721   -3.2175   -2.9222 H   0  0  0  0  0  0  0  0  0  0  0  0
   -0.9405   -3.6024   -3.9240 H   0  0  0  0  0  0  0  0  0  0  0  0
   -1.3975   -4.6459   -2.7527 H   0  0  0  0  0  0  0  0  0  0  0  0
  1  5  1  0
  5  8  1  0
  1  2  1  0
  1  3  1  0
  1  4  1  0
  5  6  1  0
  5  7  1  0
  8  9  1  0
  8 10  1  0
  8 11  1  0
 12 16  1  0
 16 17  1  0
 12 13  1  0
 12 14  1  0
 12 15  1  0
 17 18  1  0
 17 19  1  0
 17 20  1  0
M  CHG  1   8   1
M  END
>  <PDB_ID>  (757) 
pdb1wn1

>  <RESIDUE_NAME>  (757) 
LYS   MET

>  <FRAG_NAME>  (757) 
ETAM   MSM

>  <FRAG_ATOM_NUM>  (757) 
fragi: 11  fragj: 9

>  <atom.prop.CHAIN_ID>  (757) 
A A A A A A A A A A A Z Z Z Z Z Z Z Z Z

>  <atom.prop.IS_HEAVY_ATOM>  (757) 
1 0 0 0 1 0 0 1 0 0 0 1 0 0 0 1 1 0 0 0

>  <DIFUSE_FUNC_ATOM>  (757) 
n/a

>  <FINAL_SINGLE_POINT_ENERGY>  (757) 
0

>  <NONCOV_INTER_ENERGY_QM>  (757) 
0

>  <FF_Energy>  (757) 
0.82

>  <QM_Energy>  (757) 
-5.24

>  <source>  (757) 
ETAM_MSM

>  <Index>  (757) 
4565

$$$$
ETAM-pdb3amh-A-LYS-38:MSM-pdb3amh-A-MET-1
     RDKit          3D

 20 18  0  0  0  0  0  0  0  0999 V2000
    1.2237    0.8708   -0.0000 C   0  0  0  0  0  0  0  0  0  0  0  0
    1.8156    0.5965    0.7498 H   0  0  0  0  0  0  0  0  0  0  0  0
    0.9448    1.8184    0.1051 H   0  0  0  0  0  0  0  0  0  0  0  0
    1.7684    0.7629   -0.9379 H   0  0  0  0  0  0  0  0  0  0  0  0
    0.0000    0.0000    0.0000 C   0  0  0  0  0  0  0  0  0  0  0  0
   -0.0022   -0.5723   -0.8161 H   0  0  0  0  0  0  0  0  0  0  0  0
   -0.0026   -0.5727    0.8166 H   0  0  0  0  0  0  0  0  0  0  0  0
   -1.2237    0.8490    0.0000 N   0  0  0  0  0  4  0  0  0  0  0  0
   -1.0842    1.6308    0.6058 H   0  0  0  0  0  0  0  0  0  0  0  0
   -1.4028    1.1723   -0.9286 H   0  0  0  0  0  0  0  0  0  0  0  0
   -2.0004    0.3098    0.3220 H   0  0  0  0  0  0  0  0  0  0  0  0
    4.9485   -2.0901    0.6905 C   0  0  0  0  0  0  0  0  0  0  0  0
    4.7105   -2.0654   -0.3182 H   0  0  0  0  0  0  0  0  0  0  0  0
    4.1484   -2.5848    1.1241 H   0  0  0  0  0  0  0  0  0  0  0  0
    5.8407   -2.7034    0.8169 H   0  0  0  0  0  0  0  0  0  0  0  0
    5.0674   -0.3926    1.3486 S   0  0  0  0  0  0  0  0  0  0  0  0
    3.3434   -0.2915    1.8723 C   0  0  0  0  0  0  0  0  0  0  0  0
    3.2185   -0.8345    2.7015 H   0  0  0  0  0  0  0  0  0  0  0  0
    3.1109    0.6622    2.0561 H   0  0  0  0  0  0  0  0  0  0  0  0
    2.7568   -0.6474    1.1461 H   0  0  0  0  0  0  0  0  0  0  0  0
  1  5  1  0
  5  8  1  0
  1  2  1  0
  1  3  1  0
  1  4  1  0
  5  6  1  0
  5  7  1  0
  8  9  1  0
  8 10  1  0
  8 11  1  0
 12 16  1  0
 16 17  1  0
 12 13  1  0
 12 14  1  0
 12 15  1  0
 17 18  1  0
 17 19  1  0
 17 20  1  0
M  CHG  1   8   1
M  END
>  <PDB_ID>  (758) 
pdb3amh

>  <RESIDUE_NAME>  (758) 
LYS   MET

>  <FRAG_NAME>  (758) 
ETAM   MSM

>  <FRAG_ATOM_NUM>  (758) 
fragi: 11  fragj: 9

>  <atom.prop.CHAIN_ID>  (758) 
A A A A A A A A A A A Z Z Z Z Z Z Z Z Z

>  <atom.prop.IS_HEAVY_ATOM>  (758) 
1 0 0 0 1 0 0 1 0 0 0 1 0 0 0 1 1 0 0 0

>  <DIFUSE_FUNC_ATOM>  (758) 
n/a

>  <FINAL_SINGLE_POINT_ENERGY>  (758) 
0

>  <NONCOV_INTER_ENERGY_QM>  (758) 
0

>  <FF_Energy>  (758) 
27.13

>  <QM_Energy>  (758) 
6.89

>  <source>  (758) 
ETAM_MSM

>  <Index>  (758) 
4573

$$$$
ETAM-pdb3apo-A-LYS-599:MSM-pdb3apo-A-MET-595
     RDKit          3D

 20 18  0  0  0  0  0  0  0  0999 V2000
    1.2828    0.8723    0.0000 C   0  0  0  0  0  0  0  0  0  0  0  0
    2.0587    0.2687    0.1000 H   0  0  0  0  0  0  0  0  0  0  0  0
    1.2178    1.5050    0.7560 H   0  0  0  0  0  0  0  0  0  0  0  0
    1.3689    1.4260   -0.9350 H   0  0  0  0  0  0  0  0  0  0  0  0
    0.0000    0.0000    0.0000 C   0  0  0  0  0  0  0  0  0  0  0  0
    0.0226   -0.5936   -0.8164 H   0  0  0  0  0  0  0  0  0  0  0  0
    0.0223   -0.5931    0.8168 H   0  0  0  0  0  0  0  0  0  0  0  0
   -1.2828    0.7858   -0.0000 N   0  0  0  0  0  4  0  0  0  0  0  0
   -2.0483    0.1550   -0.1030 H   0  0  0  0  0  0  0  0  0  0  0  0
   -1.3605    1.2787    0.8633 H   0  0  0  0  0  0  0  0  0  0  0  0
   -1.2673    1.4304   -0.7602 H   0  0  0  0  0  0  0  0  0  0  0  0
    0.1936   -2.8596   -2.5617 C   0  0  0  0  0  0  0  0  0  0  0  0
   -0.5717   -3.5342   -2.3841 H   0  0  0  0  0  0  0  0  0  0  0  0
    0.5250   -2.5988   -1.6160 H   0  0  0  0  0  0  0  0  0  0  0  0
    0.9999   -3.3949   -3.0630 H   0  0  0  0  0  0  0  0  0  0  0  0
   -0.4440   -1.3890   -3.4394 S   0  0  0  0  0  0  0  0  0  0  0  0
   -1.8813   -2.0438   -4.3075 C   0  0  0  0  0  0  0  0  0  0  0  0
   -2.7005   -1.8802   -3.7593 H   0  0  0  0  0  0  0  0  0  0  0  0
   -1.9714   -1.5851   -5.1902 H   0  0  0  0  0  0  0  0  0  0  0  0
   -1.7619   -3.0257   -4.4491 H   0  0  0  0  0  0  0  0  0  0  0  0
  1  5  1  0
  5  8  1  0
  1  2  1  0
  1  3  1  0
  1  4  1  0
  5  6  1  0
  5  7  1  0
  8  9  1  0
  8 10  1  0
  8 11  1  0
 12 16  1  0
 16 17  1  0
 12 13  1  0
 12 14  1  0
 12 15  1  0
 17 18  1  0
 17 19  1  0
 17 20  1  0
M  CHG  1   8   1
M  END
>  <PDB_ID>  (759) 
pdb3apo

>  <RESIDUE_NAME>  (759) 
LYS   MET

>  <FRAG_NAME>  (759) 
ETAM   MSM

>  <FRAG_ATOM_NUM>  (759) 
fragi: 11  fragj: 9

>  <atom.prop.CHAIN_ID>  (759) 
A A A A A A A A A A A Z Z Z Z Z Z Z Z Z

>  <atom.prop.IS_HEAVY_ATOM>  (759) 
1 0 0 0 1 0 0 1 0 0 0 1 0 0 0 1 1 0 0 0

>  <DIFUSE_FUNC_ATOM>  (759) 
n/a

>  <FINAL_SINGLE_POINT_ENERGY>  (759) 
0

>  <NONCOV_INTER_ENERGY_QM>  (759) 
0

>  <FF_Energy>  (759) 
-3.11

>  <QM_Energy>  (759) 
-8.35

>  <source>  (759) 
ETAM_MSM

>  <Index>  (759) 
4582

$$$$
ETAM-pdb1wpq-A-LYS-120:MSM-pdb1wpq-A-MET-148
     RDKit          3D

 20 18  0  0  0  0  0  0  0  0999 V2000
    1.2616    0.8414    0.0000 C   0  0  0  0  0  0  0  0  0  0  0  0
    1.2836    1.3736    0.8269 H   0  0  0  0  0  0  0  0  0  0  0  0
    1.2631    1.4043   -0.8064 H   0  0  0  0  0  0  0  0  0  0  0  0
    2.1174    0.1667   -0.0232 H   0  0  0  0  0  0  0  0  0  0  0  0
    0.0000    0.0000    0.0000 C   0  0  0  0  0  0  0  0  0  0  0  0
    0.0123   -0.6051   -0.8158 H   0  0  0  0  0  0  0  0  0  0  0  0
    0.0128   -0.6050    0.8161 H   0  0  0  0  0  0  0  0  0  0  0  0
   -1.2616    0.7813   -0.0000 N   0  0  0  0  0  4  0  0  0  0  0  0
   -2.0407    0.1565    0.0499 H   0  0  0  0  0  0  0  0  0  0  0  0
   -1.2746    1.3945    0.7902 H   0  0  0  0  0  0  0  0  0  0  0  0
   -1.3201    1.3208   -0.8409 H   0  0  0  0  0  0  0  0  0  0  0  0
   -0.7093   -1.3079   -4.5430 C   0  0  0  0  0  0  0  0  0  0  0  0
   -0.9050   -2.2938   -4.7624 H   0  0  0  0  0  0  0  0  0  0  0  0
   -0.3107   -0.9174   -5.4075 H   0  0  0  0  0  0  0  0  0  0  0  0
   -1.6573   -0.8073   -4.3465 H   0  0  0  0  0  0  0  0  0  0  0  0
    0.4700   -1.1790   -3.1813 S   0  0  0  0  0  0  0  0  0  0  0  0
    1.2644   -2.7731   -3.2223 C   0  0  0  0  0  0  0  0  0  0  0  0
    1.8076   -2.8610   -4.0608 H   0  0  0  0  0  0  0  0  0  0  0  0
    1.8677   -2.8735   -2.4274 H   0  0  0  0  0  0  0  0  0  0  0  0
    0.5727   -3.4992   -3.2027 H   0  0  0  0  0  0  0  0  0  0  0  0
  1  5  1  0
  5  8  1  0
  1  2  1  0
  1  3  1  0
  1  4  1  0
  5  6  1  0
  5  7  1  0
  8  9  1  0
  8 10  1  0
  8 11  1  0
 12 16  1  0
 16 17  1  0
 12 13  1  0
 12 14  1  0
 12 15  1  0
 17 18  1  0
 17 19  1  0
 17 20  1  0
M  CHG  1   8   1
M  END
>  <PDB_ID>  (760) 
pdb1wpq

>  <RESIDUE_NAME>  (760) 
LYS   MET

>  <FRAG_NAME>  (760) 
ETAM   MSM

>  <FRAG_ATOM_NUM>  (760) 
fragi: 11  fragj: 9

>  <atom.prop.CHAIN_ID>  (760) 
A A A A A A A A A A A Z Z Z Z Z Z Z Z Z

>  <atom.prop.IS_HEAVY_ATOM>  (760) 
1 0 0 0 1 0 0 1 0 0 0 1 0 0 0 1 1 0 0 0

>  <DIFUSE_FUNC_ATOM>  (760) 
n/a

>  <FINAL_SINGLE_POINT_ENERGY>  (760) 
0

>  <NONCOV_INTER_ENERGY_QM>  (760) 
0

>  <FF_Energy>  (760) 
-1.48

>  <QM_Energy>  (760) 
-8.79

>  <source>  (760) 
ETAM_MSM

>  <Index>  (760) 
4594

$$$$
ETAM-pdb1wpb-C-LYS-142:MSM-pdb1wpb-C-MET-146
     RDKit          3D

 20 18  0  0  0  0  0  0  0  0999 V2000
    1.2720    0.8784    0.0000 C   0  0  0  0  0  0  0  0  0  0  0  0
    2.0568    0.2843   -0.1547 H   0  0  0  0  0  0  0  0  0  0  0  0
    1.3445    1.3149    0.8929 H   0  0  0  0  0  0  0  0  0  0  0  0
    1.2525    1.6476   -0.7721 H   0  0  0  0  0  0  0  0  0  0  0  0
    0.0000    0.0000    0.0000 C   0  0  0  0  0  0  0  0  0  0  0  0
    0.0330   -0.5973   -0.8158 H   0  0  0  0  0  0  0  0  0  0  0  0
    0.0322   -0.5979    0.8161 H   0  0  0  0  0  0  0  0  0  0  0  0
   -1.2720    0.7665    0.0000 N   0  0  0  0  0  4  0  0  0  0  0  0
   -1.0715    1.7451   -0.0436 H   0  0  0  0  0  0  0  0  0  0  0  0
   -1.8192    0.5028   -0.7938 H   0  0  0  0  0  0  0  0  0  0  0  0
   -1.7809    0.5670    0.8380 H   0  0  0  0  0  0  0  0  0  0  0  0
   -2.4241    4.0710   -0.1772 C   0  0  0  0  0  0  0  0  0  0  0  0
   -3.1943    3.4393    0.0561 H   0  0  0  0  0  0  0  0  0  0  0  0
   -1.9986    3.6922   -1.0274 H   0  0  0  0  0  0  0  0  0  0  0  0
   -2.8395    5.0526   -0.4055 H   0  0  0  0  0  0  0  0  0  0  0  0
   -1.2413    4.1609    1.1489 S   0  0  0  0  0  0  0  0  0  0  0  0
   -2.2014    4.9443    2.4157 C   0  0  0  0  0  0  0  0  0  0  0  0
   -2.9651    5.4522    2.0062 H   0  0  0  0  0  0  0  0  0  0  0  0
   -2.5717    4.2544    3.0447 H   0  0  0  0  0  0  0  0  0  0  0  0
   -1.6290    5.5838    2.9366 H   0  0  0  0  0  0  0  0  0  0  0  0
  1  5  1  0
  5  8  1  0
  1  2  1  0
  1  3  1  0
  1  4  1  0
  5  6  1  0
  5  7  1  0
  8  9  1  0
  8 10  1  0
  8 11  1  0
 12 16  1  0
 16 17  1  0
 12 13  1  0
 12 14  1  0
 12 15  1  0
 17 18  1  0
 17 19  1  0
 17 20  1  0
M  CHG  1   8   1
M  END
>  <PDB_ID>  (761) 
pdb1wpb

>  <RESIDUE_NAME>  (761) 
LYS   MET

>  <FRAG_NAME>  (761) 
ETAM   MSM

>  <FRAG_ATOM_NUM>  (761) 
fragi: 11  fragj: 9

>  <atom.prop.CHAIN_ID>  (761) 
A A A A A A A A A A A Z Z Z Z Z Z Z Z Z

>  <atom.prop.IS_HEAVY_ATOM>  (761) 
1 0 0 0 1 0 0 1 0 0 0 1 0 0 0 1 1 0 0 0

>  <DIFUSE_FUNC_ATOM>  (761) 
n/a

>  <FINAL_SINGLE_POINT_ENERGY>  (761) 
0

>  <NONCOV_INTER_ENERGY_QM>  (761) 
0

>  <FF_Energy>  (761) 
-4.24

>  <QM_Energy>  (761) 
-10.07

>  <source>  (761) 
ETAM_MSM

>  <Index>  (761) 
4598

$$$$
ETAM-pdb3ajv-D-LYS-165:MSM-pdb3ajv-D-MET-180
     RDKit          3D

 20 18  0  0  0  0  0  0  0  0999 V2000
    1.2112    0.9229   -0.0000 C   0  0  0  0  0  0  0  0  0  0  0  0
    1.8741    0.5780   -0.6396 H   0  0  0  0  0  0  0  0  0  0  0  0
    1.5681    0.9778    0.9146 H   0  0  0  0  0  0  0  0  0  0  0  0
    0.8984    1.9175   -0.3180 H   0  0  0  0  0  0  0  0  0  0  0  0
    0.0000    0.0000    0.0000 C   0  0  0  0  0  0  0  0  0  0  0  0
   -0.0102   -0.5308   -0.8161 H   0  0  0  0  0  0  0  0  0  0  0  0
   -0.0104   -0.5310    0.8162 H   0  0  0  0  0  0  0  0  0  0  0  0
   -1.2112    0.9228    0.0000 N   0  0  0  0  0  4  0  0  0  0  0  0
   -0.8914    1.8609    0.0714 H   0  0  0  0  0  0  0  0  0  0  0  0
   -1.7091    0.7883   -0.8500 H   0  0  0  0  0  0  0  0  0  0  0  0
   -1.7838    0.6900    0.7787 H   0  0  0  0  0  0  0  0  0  0  0  0
   -4.8721   -0.8497    0.1524 C   0  0  0  0  0  0  0  0  0  0  0  0
   -5.7722   -1.1827   -0.1854 H   0  0  0  0  0  0  0  0  0  0  0  0
   -4.4768   -1.5995    0.7153 H   0  0  0  0  0  0  0  0  0  0  0  0
   -4.2204   -0.6691   -0.7025 H   0  0  0  0  0  0  0  0  0  0  0  0
   -5.0869    0.6540    1.1571 S   0  0  0  0  0  0  0  0  0  0  0  0
   -3.4325    1.0310    1.7174 C   0  0  0  0  0  0  0  0  0  0  0  0
   -2.9572    0.1834    1.9615 H   0  0  0  0  0  0  0  0  0  0  0  0
   -2.9259    1.4945    0.9872 H   0  0  0  0  0  0  0  0  0  0  0  0
   -3.4755    1.6287    2.5209 H   0  0  0  0  0  0  0  0  0  0  0  0
  1  5  1  0
  5  8  1  0
  1  2  1  0
  1  3  1  0
  1  4  1  0
  5  6  1  0
  5  7  1  0
  8  9  1  0
  8 10  1  0
  8 11  1  0
 12 16  1  0
 16 17  1  0
 12 13  1  0
 12 14  1  0
 12 15  1  0
 17 18  1  0
 17 19  1  0
 17 20  1  0
M  CHG  1   8   1
M  END
>  <PDB_ID>  (762) 
pdb3ajv

>  <RESIDUE_NAME>  (762) 
LYS   MET

>  <FRAG_NAME>  (762) 
ETAM   MSM

>  <FRAG_ATOM_NUM>  (762) 
fragi: 11  fragj: 9

>  <atom.prop.CHAIN_ID>  (762) 
A A A A A A A A A A A Z Z Z Z Z Z Z Z Z

>  <atom.prop.IS_HEAVY_ATOM>  (762) 
1 0 0 0 1 0 0 1 0 0 0 1 0 0 0 1 1 0 0 0

>  <DIFUSE_FUNC_ATOM>  (762) 
n/a

>  <FINAL_SINGLE_POINT_ENERGY>  (762) 
0

>  <NONCOV_INTER_ENERGY_QM>  (762) 
0

>  <FF_Energy>  (762) 
17.84

>  <QM_Energy>  (762) 
9.4

>  <source>  (762) 
ETAM_MSM

>  <Index>  (762) 
4608

$$$$
ETAM-pdb1wqa-A-LYS-17:MSM-pdb1wqa-A-MET-1
     RDKit          3D

 20 18  0  0  0  0  0  0  0  0999 V2000
    1.2206    0.8741   -0.0000 C   0  0  0  0  0  0  0  0  0  0  0  0
    1.1883    1.4871    0.7892 H   0  0  0  0  0  0  0  0  0  0  0  0
    1.2411    1.4123   -0.8420 H   0  0  0  0  0  0  0  0  0  0  0  0
    2.1452    0.2994    0.0568 H   0  0  0  0  0  0  0  0  0  0  0  0
    0.0000    0.0000    0.0000 C   0  0  0  0  0  0  0  0  0  0  0  0
   -0.0046   -0.5687   -0.8160 H   0  0  0  0  0  0  0  0  0  0  0  0
   -0.0048   -0.5684    0.8162 H   0  0  0  0  0  0  0  0  0  0  0  0
   -1.2206    0.8589    0.0000 N   0  0  0  0  0  4  0  0  0  0  0  0
   -0.9662    1.7920    0.2497 H   0  0  0  0  0  0  0  0  0  0  0  0
   -1.6276    0.8532   -0.9125 H   0  0  0  0  0  0  0  0  0  0  0  0
   -1.8760    0.4999    0.6633 H   0  0  0  0  0  0  0  0  0  0  0  0
   -4.5906    1.1673    0.3108 C   0  0  0  0  0  0  0  0  0  0  0  0
   -4.1192    1.9966    0.7241 H   0  0  0  0  0  0  0  0  0  0  0  0
   -4.0592    0.3658    0.7061 H   0  0  0  0  0  0  0  0  0  0  0  0
   -5.6007    1.1261    0.7183 H   0  0  0  0  0  0  0  0  0  0  0  0
   -4.4217    1.1937   -1.5290 S   0  0  0  0  0  0  0  0  0  0  0  0
   -5.5145    2.5575   -1.9565 C   0  0  0  0  0  0  0  0  0  0  0  0
   -4.9839    3.2843   -2.3924 H   0  0  0  0  0  0  0  0  0  0  0  0
   -6.2190    2.2333   -2.5882 H   0  0  0  0  0  0  0  0  0  0  0  0
   -5.9456    2.9096   -1.1262 H   0  0  0  0  0  0  0  0  0  0  0  0
  1  5  1  0
  5  8  1  0
  1  2  1  0
  1  3  1  0
  1  4  1  0
  5  6  1  0
  5  7  1  0
  8  9  1  0
  8 10  1  0
  8 11  1  0
 12 16  1  0
 16 17  1  0
 12 13  1  0
 12 14  1  0
 12 15  1  0
 17 18  1  0
 17 19  1  0
 17 20  1  0
M  CHG  1   8   1
M  END
>  <PDB_ID>  (763) 
pdb1wqa

>  <RESIDUE_NAME>  (763) 
LYS   MET

>  <FRAG_NAME>  (763) 
ETAM   MSM

>  <FRAG_ATOM_NUM>  (763) 
fragi: 11  fragj: 9

>  <atom.prop.CHAIN_ID>  (763) 
A A A A A A A A A A A Z Z Z Z Z Z Z Z Z

>  <atom.prop.IS_HEAVY_ATOM>  (763) 
1 0 0 0 1 0 0 1 0 0 0 1 0 0 0 1 1 0 0 0

>  <DIFUSE_FUNC_ATOM>  (763) 
n/a

>  <FINAL_SINGLE_POINT_ENERGY>  (763) 
0

>  <NONCOV_INTER_ENERGY_QM>  (763) 
0

>  <FF_Energy>  (763) 
-3.05

>  <QM_Energy>  (763) 
-9.35

>  <source>  (763) 
ETAM_MSM

>  <Index>  (763) 
4610

$$$$
ETAM-pdb1wqa-A-LYS-452:MSM-pdb1wqa-A-MET-393
     RDKit          3D

 20 18  0  0  0  0  0  0  0  0999 V2000
    1.2525    0.8746    0.0000 C   0  0  0  0  0  0  0  0  0  0  0  0
    1.2907    1.3704    0.8615 H   0  0  0  0  0  0  0  0  0  0  0  0
    1.1925    1.5107   -0.7617 H   0  0  0  0  0  0  0  0  0  0  0  0
    2.1610    0.2815   -0.1058 H   0  0  0  0  0  0  0  0  0  0  0  0
    0.0000    0.0000    0.0000 C   0  0  0  0  0  0  0  0  0  0  0  0
    0.0134   -0.5835   -0.8160 H   0  0  0  0  0  0  0  0  0  0  0  0
    0.0131   -0.5836    0.8160 H   0  0  0  0  0  0  0  0  0  0  0  0
   -1.2525    0.8129    0.0000 N   0  0  0  0  0  4  0  0  0  0  0  0
   -1.4251    1.1516    0.9232 H   0  0  0  0  0  0  0  0  0  0  0  0
   -1.1448    1.5833   -0.6261 H   0  0  0  0  0  0  0  0  0  0  0  0
   -2.0159    0.2417   -0.2972 H   0  0  0  0  0  0  0  0  0  0  0  0
   -0.4533    0.6584   -4.2569 C   0  0  0  0  0  0  0  0  0  0  0  0
   -1.3540    0.3979   -3.8530 H   0  0  0  0  0  0  0  0  0  0  0  0
   -0.4174    0.2239   -5.1797 H   0  0  0  0  0  0  0  0  0  0  0  0
   -0.4158    1.7416   -4.3724 H   0  0  0  0  0  0  0  0  0  0  0  0
    0.8926    0.0861   -3.2316 S   0  0  0  0  0  0  0  0  0  0  0  0
    1.8193   -0.9323   -4.4319 C   0  0  0  0  0  0  0  0  0  0  0  0
    1.1681   -1.4100   -5.0137 H   0  0  0  0  0  0  0  0  0  0  0  0
    2.3959   -0.3330   -4.9784 H   0  0  0  0  0  0  0  0  0  0  0  0
    2.3772   -1.5858   -3.9300 H   0  0  0  0  0  0  0  0  0  0  0  0
  1  5  1  0
  5  8  1  0
  1  2  1  0
  1  3  1  0
  1  4  1  0
  5  6  1  0
  5  7  1  0
  8  9  1  0
  8 10  1  0
  8 11  1  0
 12 16  1  0
 16 17  1  0
 12 13  1  0
 12 14  1  0
 12 15  1  0
 17 18  1  0
 17 19  1  0
 17 20  1  0
M  CHG  1   8   1
M  END
>  <PDB_ID>  (764) 
pdb1wqa

>  <RESIDUE_NAME>  (764) 
LYS   MET

>  <FRAG_NAME>  (764) 
ETAM   MSM

>  <FRAG_ATOM_NUM>  (764) 
fragi: 11  fragj: 9

>  <atom.prop.CHAIN_ID>  (764) 
A A A A A A A A A A A Z Z Z Z Z Z Z Z Z

>  <atom.prop.IS_HEAVY_ATOM>  (764) 
1 0 0 0 1 0 0 1 0 0 0 1 0 0 0 1 1 0 0 0

>  <DIFUSE_FUNC_ATOM>  (764) 
n/a

>  <FINAL_SINGLE_POINT_ENERGY>  (764) 
0

>  <NONCOV_INTER_ENERGY_QM>  (764) 
0

>  <FF_Energy>  (764) 
-2.33

>  <QM_Energy>  (764) 
-8.1

>  <source>  (764) 
ETAM_MSM

>  <Index>  (764) 
4611

$$$$
ETAM-pdb1wqa-B-LYS-17:MSM-pdb1wqa-B-MET-1
     RDKit          3D

 20 18  0  0  0  0  0  0  0  0999 V2000
    1.2116    0.8717    0.0000 C   0  0  0  0  0  0  0  0  0  0  0  0
    1.1958    1.4589    0.8072 H   0  0  0  0  0  0  0  0  0  0  0  0
    1.2148    1.4318   -0.8258 H   0  0  0  0  0  0  0  0  0  0  0  0
    2.1284    0.2825    0.0215 H   0  0  0  0  0  0  0  0  0  0  0  0
    0.0000    0.0000    0.0000 C   0  0  0  0  0  0  0  0  0  0  0  0
   -0.0081   -0.5676   -0.8165 H   0  0  0  0  0  0  0  0  0  0  0  0
   -0.0087   -0.5668    0.8165 H   0  0  0  0  0  0  0  0  0  0  0  0
   -1.2116    0.8650   -0.0000 N   0  0  0  0  0  4  0  0  0  0  0  0
   -0.9356    1.8212   -0.0912 H   0  0  0  0  0  0  0  0  0  0  0  0
   -1.7998    0.6120   -0.7678 H   0  0  0  0  0  0  0  0  0  0  0  0
   -1.7086    0.7395    0.8588 H   0  0  0  0  0  0  0  0  0  0  0  0
   -4.9546    1.5260    0.1715 C   0  0  0  0  0  0  0  0  0  0  0  0
   -5.4791    2.4332    0.2720 H   0  0  0  0  0  0  0  0  0  0  0  0
   -4.1145    1.6960    0.7824 H   0  0  0  0  0  0  0  0  0  0  0  0
   -5.5527    0.7513    0.6512 H   0  0  0  0  0  0  0  0  0  0  0  0
   -4.3947    1.3293   -1.6107 S   0  0  0  0  0  0  0  0  0  0  0  0
   -5.7348    2.1597   -2.5047 C   0  0  0  0  0  0  0  0  0  0  0  0
   -6.1779    1.5023   -3.1109 H   0  0  0  0  0  0  0  0  0  0  0  0
   -6.3954    2.5127   -1.8453 H   0  0  0  0  0  0  0  0  0  0  0  0
   -5.3527    2.9108   -3.0393 H   0  0  0  0  0  0  0  0  0  0  0  0
  1  5  1  0
  5  8  1  0
  1  2  1  0
  1  3  1  0
  1  4  1  0
  5  6  1  0
  5  7  1  0
  8  9  1  0
  8 10  1  0
  8 11  1  0
 12 16  1  0
 16 17  1  0
 12 13  1  0
 12 14  1  0
 12 15  1  0
 17 18  1  0
 17 19  1  0
 17 20  1  0
M  CHG  1   8   1
M  END
>  <PDB_ID>  (765) 
pdb1wqa

>  <RESIDUE_NAME>  (765) 
LYS   MET

>  <FRAG_NAME>  (765) 
ETAM   MSM

>  <FRAG_ATOM_NUM>  (765) 
fragi: 11  fragj: 9

>  <atom.prop.CHAIN_ID>  (765) 
A A A A A A A A A A A Z Z Z Z Z Z Z Z Z

>  <atom.prop.IS_HEAVY_ATOM>  (765) 
1 0 0 0 1 0 0 1 0 0 0 1 0 0 0 1 1 0 0 0

>  <DIFUSE_FUNC_ATOM>  (765) 
n/a

>  <FINAL_SINGLE_POINT_ENERGY>  (765) 
0

>  <NONCOV_INTER_ENERGY_QM>  (765) 
0

>  <FF_Energy>  (765) 
-4.13

>  <QM_Energy>  (765) 
-9.81

>  <source>  (765) 
ETAM_MSM

>  <Index>  (765) 
4612

$$$$
ETAM-pdb1wqa-C-LYS-452:MSM-pdb1wqa-C-MET-393
     RDKit          3D

 20 18  0  0  0  0  0  0  0  0999 V2000
    1.2456    0.8741   -0.0000 C   0  0  0  0  0  0  0  0  0  0  0  0
    1.2722    1.3889    0.8513 H   0  0  0  0  0  0  0  0  0  0  0  0
    1.1983    1.4928   -0.7775 H   0  0  0  0  0  0  0  0  0  0  0  0
    2.1541    0.2770   -0.0790 H   0  0  0  0  0  0  0  0  0  0  0  0
    0.0000    0.0000    0.0000 C   0  0  0  0  0  0  0  0  0  0  0  0
    0.0121   -0.5822   -0.8167 H   0  0  0  0  0  0  0  0  0  0  0  0
    0.0116   -0.5821    0.8162 H   0  0  0  0  0  0  0  0  0  0  0  0
   -1.2456    0.8163   -0.0000 N   0  0  0  0  0  4  0  0  0  0  0  0
   -1.0841    1.6673   -0.4982 H   0  0  0  0  0  0  0  0  0  0  0  0
   -1.9786    0.3020   -0.4439 H   0  0  0  0  0  0  0  0  0  0  0  0
   -1.5052    1.0245    0.9426 H   0  0  0  0  0  0  0  0  0  0  0  0
   -0.8000   -0.8501   -4.2658 C   0  0  0  0  0  0  0  0  0  0  0  0
   -1.6599   -1.0961   -3.7717 H   0  0  0  0  0  0  0  0  0  0  0  0
   -0.7842   -1.4247   -5.1104 H   0  0  0  0  0  0  0  0  0  0  0  0
   -0.8512    0.1993   -4.5559 H   0  0  0  0  0  0  0  0  0  0  0  0
    0.6378   -1.1747   -3.2458 S   0  0  0  0  0  0  0  0  0  0  0  0
    1.7505   -1.8318   -4.4550 C   0  0  0  0  0  0  0  0  0  0  0  0
    2.0865   -2.7330   -4.1634 H   0  0  0  0  0  0  0  0  0  0  0  0
    1.2824   -1.9319   -5.3384 H   0  0  0  0  0  0  0  0  0  0  0  0
    2.5355   -1.2165   -4.5734 H   0  0  0  0  0  0  0  0  0  0  0  0
  1  5  1  0
  5  8  1  0
  1  2  1  0
  1  3  1  0
  1  4  1  0
  5  6  1  0
  5  7  1  0
  8  9  1  0
  8 10  1  0
  8 11  1  0
 12 16  1  0
 16 17  1  0
 12 13  1  0
 12 14  1  0
 12 15  1  0
 17 18  1  0
 17 19  1  0
 17 20  1  0
M  CHG  1   8   1
M  END
>  <PDB_ID>  (766) 
pdb1wqa

>  <RESIDUE_NAME>  (766) 
LYS   MET

>  <FRAG_NAME>  (766) 
ETAM   MSM

>  <FRAG_ATOM_NUM>  (766) 
fragi: 11  fragj: 9

>  <atom.prop.CHAIN_ID>  (766) 
A A A A A A A A A A A Z Z Z Z Z Z Z Z Z

>  <atom.prop.IS_HEAVY_ATOM>  (766) 
1 0 0 0 1 0 0 1 0 0 0 1 0 0 0 1 1 0 0 0

>  <DIFUSE_FUNC_ATOM>  (766) 
n/a

>  <FINAL_SINGLE_POINT_ENERGY>  (766) 
0

>  <NONCOV_INTER_ENERGY_QM>  (766) 
0

>  <FF_Energy>  (766) 
-2.52

>  <QM_Energy>  (766) 
-7.77

>  <source>  (766) 
ETAM_MSM

>  <Index>  (766) 
4616

$$$$
ETAM-pdb1wqa-D-LYS-17:MSM-pdb1wqa-D-MET-1
     RDKit          3D

 20 18  0  0  0  0  0  0  0  0999 V2000
    1.2274    0.8661    0.0000 C   0  0  0  0  0  0  0  0  0  0  0  0
    1.2177    1.4489    0.8094 H   0  0  0  0  0  0  0  0  0  0  0  0
    1.2310    1.4292   -0.8226 H   0  0  0  0  0  0  0  0  0  0  0  0
    2.1432    0.2752    0.0150 H   0  0  0  0  0  0  0  0  0  0  0  0
    0.0000    0.0000    0.0000 C   0  0  0  0  0  0  0  0  0  0  0  0
    0.0010   -0.5788   -0.8163 H   0  0  0  0  0  0  0  0  0  0  0  0
    0.0005   -0.5789    0.8168 H   0  0  0  0  0  0  0  0  0  0  0  0
   -1.2274    0.8368   -0.0000 N   0  0  0  0  0  4  0  0  0  0  0  0
   -0.9930    1.7709    0.2685 H   0  0  0  0  0  0  0  0  0  0  0  0
   -1.6260    0.8430   -0.9169 H   0  0  0  0  0  0  0  0  0  0  0  0
   -1.8882    0.4589    0.6481 H   0  0  0  0  0  0  0  0  0  0  0  0
   -5.5809    2.2603   -0.0071 C   0  0  0  0  0  0  0  0  0  0  0  0
   -6.1760    2.8836   -0.6033 H   0  0  0  0  0  0  0  0  0  0  0  0
   -5.1520    2.9365    0.6681 H   0  0  0  0  0  0  0  0  0  0  0  0
   -6.2435    1.6003    0.5528 H   0  0  0  0  0  0  0  0  0  0  0  0
   -4.2508    1.4968   -1.0451 S   0  0  0  0  0  0  0  0  0  0  0  0
   -4.9893    1.5465   -2.6072 C   0  0  0  0  0  0  0  0  0  0  0  0
   -5.7916    2.1631   -2.6144 H   0  0  0  0  0  0  0  0  0  0  0  0
   -4.3408    1.8792   -3.3094 H   0  0  0  0  0  0  0  0  0  0  0  0
   -5.3060    0.6292   -2.8927 H   0  0  0  0  0  0  0  0  0  0  0  0
  1  5  1  0
  5  8  1  0
  1  2  1  0
  1  3  1  0
  1  4  1  0
  5  6  1  0
  5  7  1  0
  8  9  1  0
  8 10  1  0
  8 11  1  0
 12 16  1  0
 16 17  1  0
 12 13  1  0
 12 14  1  0
 12 15  1  0
 17 18  1  0
 17 19  1  0
 17 20  1  0
M  CHG  1   8   1
M  END
>  <PDB_ID>  (767) 
pdb1wqa

>  <RESIDUE_NAME>  (767) 
LYS   MET

>  <FRAG_NAME>  (767) 
ETAM   MSM

>  <FRAG_ATOM_NUM>  (767) 
fragi: 11  fragj: 9

>  <atom.prop.CHAIN_ID>  (767) 
A A A A A A A A A A A Z Z Z Z Z Z Z Z Z

>  <atom.prop.IS_HEAVY_ATOM>  (767) 
1 0 0 0 1 0 0 1 0 0 0 1 0 0 0 1 1 0 0 0

>  <DIFUSE_FUNC_ATOM>  (767) 
n/a

>  <FINAL_SINGLE_POINT_ENERGY>  (767) 
0

>  <NONCOV_INTER_ENERGY_QM>  (767) 
0

>  <FF_Energy>  (767) 
-5.42

>  <QM_Energy>  (767) 
-12.65

>  <source>  (767) 
ETAM_MSM

>  <Index>  (767) 
4617

$$$$
ETAM-pdb1wqa-D-LYS-452:MSM-pdb1wqa-D-MET-393
     RDKit          3D

 20 18  0  0  0  0  0  0  0  0999 V2000
    1.2543    0.8719    0.0000 C   0  0  0  0  0  0  0  0  0  0  0  0
    1.2824    1.3859    0.8517 H   0  0  0  0  0  0  0  0  0  0  0  0
    1.2087    1.4913   -0.7767 H   0  0  0  0  0  0  0  0  0  0  0  0
    2.1644    0.2771   -0.0788 H   0  0  0  0  0  0  0  0  0  0  0  0
    0.0000    0.0000    0.0000 C   0  0  0  0  0  0  0  0  0  0  0  0
    0.0132   -0.5844   -0.8164 H   0  0  0  0  0  0  0  0  0  0  0  0
    0.0118   -0.5847    0.8164 H   0  0  0  0  0  0  0  0  0  0  0  0
   -1.2543    0.8124   -0.0000 N   0  0  0  0  0  4  0  0  0  0  0  0
   -1.3340    1.2936   -0.8715 H   0  0  0  0  0  0  0  0  0  0  0  0
   -2.0386    0.2063    0.1238 H   0  0  0  0  0  0  0  0  0  0  0  0
   -1.2180    1.4728    0.7482 H   0  0  0  0  0  0  0  0  0  0  0  0
   -0.4973    0.3725   -4.2675 C   0  0  0  0  0  0  0  0  0  0  0  0
   -1.3975    0.1138   -3.8453 H   0  0  0  0  0  0  0  0  0  0  0  0
   -0.4976   -0.0725   -5.1939 H   0  0  0  0  0  0  0  0  0  0  0  0
   -0.4735    1.4542   -4.4000 H   0  0  0  0  0  0  0  0  0  0  0  0
    0.8687   -0.2347   -3.2723 S   0  0  0  0  0  0  0  0  0  0  0  0
    1.8717   -1.0271   -4.5225 C   0  0  0  0  0  0  0  0  0  0  0  0
    2.1410   -0.3553   -5.2149 H   0  0  0  0  0  0  0  0  0  0  0  0
    2.6935   -1.4140   -4.1001 H   0  0  0  0  0  0  0  0  0  0  0  0
    1.3486   -1.7608   -4.9594 H   0  0  0  0  0  0  0  0  0  0  0  0
  1  5  1  0
  5  8  1  0
  1  2  1  0
  1  3  1  0
  1  4  1  0
  5  6  1  0
  5  7  1  0
  8  9  1  0
  8 10  1  0
  8 11  1  0
 12 16  1  0
 16 17  1  0
 12 13  1  0
 12 14  1  0
 12 15  1  0
 17 18  1  0
 17 19  1  0
 17 20  1  0
M  CHG  1   8   1
M  END
>  <PDB_ID>  (768) 
pdb1wqa

>  <RESIDUE_NAME>  (768) 
LYS   MET

>  <FRAG_NAME>  (768) 
ETAM   MSM

>  <FRAG_ATOM_NUM>  (768) 
fragi: 11  fragj: 9

>  <atom.prop.CHAIN_ID>  (768) 
A A A A A A A A A A A Z Z Z Z Z Z Z Z Z

>  <atom.prop.IS_HEAVY_ATOM>  (768) 
1 0 0 0 1 0 0 1 0 0 0 1 0 0 0 1 1 0 0 0

>  <DIFUSE_FUNC_ATOM>  (768) 
n/a

>  <FINAL_SINGLE_POINT_ENERGY>  (768) 
0

>  <NONCOV_INTER_ENERGY_QM>  (768) 
0

>  <FF_Energy>  (768) 
-2.7

>  <QM_Energy>  (768) 
-8.22

>  <source>  (768) 
ETAM_MSM

>  <Index>  (768) 
4618

$$$$
ETAM-pdb1wr2-A-LYS-90:MSM-pdb1wr2-A-MET-78
     RDKit          3D

 20 18  0  0  0  0  0  0  0  0999 V2000
    1.2399    0.8852   -0.0000 C   0  0  0  0  0  0  0  0  0  0  0  0
    1.2024    1.4810    0.7957 H   0  0  0  0  0  0  0  0  0  0  0  0
    1.2415    1.4253   -0.8359 H   0  0  0  0  0  0  0  0  0  0  0  0
    2.1553    0.2949    0.0431 H   0  0  0  0  0  0  0  0  0  0  0  0
    0.0000    0.0000    0.0000 C   0  0  0  0  0  0  0  0  0  0  0  0
    0.0136   -0.5764   -0.8162 H   0  0  0  0  0  0  0  0  0  0  0  0
    0.0137   -0.5765    0.8161 H   0  0  0  0  0  0  0  0  0  0  0  0
   -1.2399    0.8230    0.0000 N   0  0  0  0  0  4  0  0  0  0  0  0
   -1.1597    1.5432   -0.6891 H   0  0  0  0  0  0  0  0  0  0  0  0
   -2.0242    0.2411   -0.2128 H   0  0  0  0  0  0  0  0  0  0  0  0
   -1.3639    1.2350    0.9021 H   0  0  0  0  0  0  0  0  0  0  0  0
    2.0065    3.4435    2.5502 C   0  0  0  0  0  0  0  0  0  0  0  0
    2.3766    4.3794    2.7376 H   0  0  0  0  0  0  0  0  0  0  0  0
    2.2786    3.2241    1.5879 H   0  0  0  0  0  0  0  0  0  0  0  0
    2.4968    2.7366    3.2195 H   0  0  0  0  0  0  0  0  0  0  0  0
    0.1908    3.4347    2.7140 S   0  0  0  0  0  0  0  0  0  0  0  0
   -0.2533    4.7819    1.6158 C   0  0  0  0  0  0  0  0  0  0  0  0
   -0.5719    5.5624    2.1551 H   0  0  0  0  0  0  0  0  0  0  0  0
    0.5468    5.0532    1.0786 H   0  0  0  0  0  0  0  0  0  0  0  0
   -0.9834    4.4842    0.9989 H   0  0  0  0  0  0  0  0  0  0  0  0
  1  5  1  0
  5  8  1  0
  1  2  1  0
  1  3  1  0
  1  4  1  0
  5  6  1  0
  5  7  1  0
  8  9  1  0
  8 10  1  0
  8 11  1  0
 12 16  1  0
 16 17  1  0
 12 13  1  0
 12 14  1  0
 12 15  1  0
 17 18  1  0
 17 19  1  0
 17 20  1  0
M  CHG  1   8   1
M  END
>  <PDB_ID>  (769) 
pdb1wr2

>  <RESIDUE_NAME>  (769) 
LYS   MET

>  <FRAG_NAME>  (769) 
ETAM   MSM

>  <FRAG_ATOM_NUM>  (769) 
fragi: 11  fragj: 9

>  <atom.prop.CHAIN_ID>  (769) 
A A A A A A A A A A A Z Z Z Z Z Z Z Z Z

>  <atom.prop.IS_HEAVY_ATOM>  (769) 
1 0 0 0 1 0 0 1 0 0 0 1 0 0 0 1 1 0 0 0

>  <DIFUSE_FUNC_ATOM>  (769) 
n/a

>  <FINAL_SINGLE_POINT_ENERGY>  (769) 
0

>  <NONCOV_INTER_ENERGY_QM>  (769) 
0

>  <FF_Energy>  (769) 
-3.49

>  <QM_Energy>  (769) 
-9.56

>  <source>  (769) 
ETAM_MSM

>  <Index>  (769) 
4623

$$$$
ETAM-pdb3aro-A-LYS-250:MSM-pdb3aro-A-MET-45
     RDKit          3D

 20 18  0  0  0  0  0  0  0  0999 V2000
    1.2139    0.9288    0.0000 C   0  0  0  0  0  0  0  0  0  0  0  0
    1.0161    1.7131    0.5714 H   0  0  0  0  0  0  0  0  0  0  0  0
    1.4052    1.2041   -0.9313 H   0  0  0  0  0  0  0  0  0  0  0  0
    2.0951    0.4264    0.3990 H   0  0  0  0  0  0  0  0  0  0  0  0
    0.0000    0.0000    0.0000 C   0  0  0  0  0  0  0  0  0  0  0  0
    0.0307   -0.5610   -0.8166 H   0  0  0  0  0  0  0  0  0  0  0  0
    0.0305   -0.5610    0.8161 H   0  0  0  0  0  0  0  0  0  0  0  0
   -1.2139    0.8264   -0.0000 N   0  0  0  0  0  4  0  0  0  0  0  0
   -1.6022    0.8629    0.9235 H   0  0  0  0  0  0  0  0  0  0  0  0
   -0.9927    1.7578   -0.2983 H   0  0  0  0  0  0  0  0  0  0  0  0
   -1.8932    0.4353   -0.6256 H   0  0  0  0  0  0  0  0  0  0  0  0
   -4.0768   -2.9144   -1.0880 C   0  0  0  0  0  0  0  0  0  0  0  0
   -4.2400   -3.9050   -1.1960 H   0  0  0  0  0  0  0  0  0  0  0  0
   -3.5740   -2.5909   -1.9013 H   0  0  0  0  0  0  0  0  0  0  0  0
   -5.0282   -2.3889   -1.0058 H   0  0  0  0  0  0  0  0  0  0  0  0
   -3.0941   -2.6057    0.4150 S   0  0  0  0  0  0  0  0  0  0  0  0
   -1.6712   -3.5257   -0.1911 C   0  0  0  0  0  0  0  0  0  0  0  0
   -1.6870   -4.4495    0.1896 H   0  0  0  0  0  0  0  0  0  0  0  0
   -1.7084   -3.5740   -1.1888 H   0  0  0  0  0  0  0  0  0  0  0  0
   -0.8312   -3.0619    0.0905 H   0  0  0  0  0  0  0  0  0  0  0  0
  1  5  1  0
  5  8  1  0
  1  2  1  0
  1  3  1  0
  1  4  1  0
  5  6  1  0
  5  7  1  0
  8  9  1  0
  8 10  1  0
  8 11  1  0
 12 16  1  0
 16 17  1  0
 12 13  1  0
 12 14  1  0
 12 15  1  0
 17 18  1  0
 17 19  1  0
 17 20  1  0
M  CHG  1   8   1
M  END
>  <PDB_ID>  (770) 
pdb3aro

>  <RESIDUE_NAME>  (770) 
LYS   MET

>  <FRAG_NAME>  (770) 
ETAM   MSM

>  <FRAG_ATOM_NUM>  (770) 
fragi: 11  fragj: 9

>  <atom.prop.CHAIN_ID>  (770) 
A A A A A A A A A A A Z Z Z Z Z Z Z Z Z

>  <atom.prop.IS_HEAVY_ATOM>  (770) 
1 0 0 0 1 0 0 1 0 0 0 1 0 0 0 1 1 0 0 0

>  <DIFUSE_FUNC_ATOM>  (770) 
n/a

>  <FINAL_SINGLE_POINT_ENERGY>  (770) 
0

>  <NONCOV_INTER_ENERGY_QM>  (770) 
0

>  <FF_Energy>  (770) 
-3.81

>  <QM_Energy>  (770) 
-9.19

>  <source>  (770) 
ETAM_MSM

>  <Index>  (770) 
4633

$$$$
ETAM-pdb1wwz-A-LYS-143:MSM-pdb1wwz-A-MET-133
     RDKit          3D

 20 18  0  0  0  0  0  0  0  0999 V2000
    1.2489    0.8673    0.0000 C   0  0  0  0  0  0  0  0  0  0  0  0
    1.2324    1.4466    0.8065 H   0  0  0  0  0  0  0  0  0  0  0  0
    1.2522    1.4177   -0.8268 H   0  0  0  0  0  0  0  0  0  0  0  0
    2.1497    0.2541    0.0228 H   0  0  0  0  0  0  0  0  0  0  0  0
    0.0000    0.0000    0.0000 C   0  0  0  0  0  0  0  0  0  0  0  0
    0.0089   -0.5851   -0.8162 H   0  0  0  0  0  0  0  0  0  0  0  0
    0.0087   -0.5847    0.8166 H   0  0  0  0  0  0  0  0  0  0  0  0
   -1.2489    0.8171   -0.0000 N   0  0  0  0  0  4  0  0  0  0  0  0
   -1.0358    1.7454    0.3020 H   0  0  0  0  0  0  0  0  0  0  0  0
   -1.6260    0.8433   -0.9249 H   0  0  0  0  0  0  0  0  0  0  0  0
   -1.9128    0.4048    0.6224 H   0  0  0  0  0  0  0  0  0  0  0  0
   -1.1092   -3.0675   -3.1582 C   0  0  0  0  0  0  0  0  0  0  0  0
   -0.1624   -3.4507   -3.2739 H   0  0  0  0  0  0  0  0  0  0  0  0
   -1.6475   -3.4405   -3.9505 H   0  0  0  0  0  0  0  0  0  0  0  0
   -1.5306   -3.4710   -2.2375 H   0  0  0  0  0  0  0  0  0  0  0  0
   -1.0790   -1.2648   -3.1991 S   0  0  0  0  0  0  0  0  0  0  0  0
   -2.7873   -0.9265   -3.4202 C   0  0  0  0  0  0  0  0  0  0  0  0
   -2.9972   -0.7863   -4.3954 H   0  0  0  0  0  0  0  0  0  0  0  0
   -3.3461   -1.6935   -3.0822 H   0  0  0  0  0  0  0  0  0  0  0  0
   -3.0516   -0.0951   -2.9167 H   0  0  0  0  0  0  0  0  0  0  0  0
  1  5  1  0
  5  8  1  0
  1  2  1  0
  1  3  1  0
  1  4  1  0
  5  6  1  0
  5  7  1  0
  8  9  1  0
  8 10  1  0
  8 11  1  0
 12 16  1  0
 16 17  1  0
 12 13  1  0
 12 14  1  0
 12 15  1  0
 17 18  1  0
 17 19  1  0
 17 20  1  0
M  CHG  1   8   1
M  END
>  <PDB_ID>  (771) 
pdb1wwz

>  <RESIDUE_NAME>  (771) 
LYS   MET

>  <FRAG_NAME>  (771) 
ETAM   MSM

>  <FRAG_ATOM_NUM>  (771) 
fragi: 11  fragj: 9

>  <atom.prop.CHAIN_ID>  (771) 
A A A A A A A A A A A Z Z Z Z Z Z Z Z Z

>  <atom.prop.IS_HEAVY_ATOM>  (771) 
1 0 0 0 1 0 0 1 0 0 0 1 0 0 0 1 1 0 0 0

>  <DIFUSE_FUNC_ATOM>  (771) 
n/a

>  <FINAL_SINGLE_POINT_ENERGY>  (771) 
0

>  <NONCOV_INTER_ENERGY_QM>  (771) 
0

>  <FF_Energy>  (771) 
-3.64

>  <QM_Energy>  (771) 
-9.54

>  <source>  (771) 
ETAM_MSM

>  <Index>  (771) 
4666

$$$$
ETAM-pdb1wwz-B-LYS-143:MSM-pdb1wwz-B-MET-133
     RDKit          3D

 20 18  0  0  0  0  0  0  0  0999 V2000
    1.2193    0.8907   -0.0000 C   0  0  0  0  0  0  0  0  0  0  0  0
    1.1893    1.4727    0.8078 H   0  0  0  0  0  0  0  0  0  0  0  0
    1.2079    1.4474   -0.8258 H   0  0  0  0  0  0  0  0  0  0  0  0
    2.1358    0.3011    0.0204 H   0  0  0  0  0  0  0  0  0  0  0  0
    0.0000    0.0000    0.0000 C   0  0  0  0  0  0  0  0  0  0  0  0
    0.0110   -0.5694   -0.8162 H   0  0  0  0  0  0  0  0  0  0  0  0
    0.0099   -0.5695    0.8169 H   0  0  0  0  0  0  0  0  0  0  0  0
   -1.2193    0.8387   -0.0000 N   0  0  0  0  0  4  0  0  0  0  0  0
   -1.0608    1.6616    0.5482 H   0  0  0  0  0  0  0  0  0  0  0  0
   -1.4446    1.1043   -0.9382 H   0  0  0  0  0  0  0  0  0  0  0  0
   -1.9826    0.3214    0.3905 H   0  0  0  0  0  0  0  0  0  0  0  0
   -1.5386   -2.9535   -2.8816 C   0  0  0  0  0  0  0  0  0  0  0  0
   -0.5611   -3.1226   -3.1256 H   0  0  0  0  0  0  0  0  0  0  0  0
   -2.0941   -3.4357   -3.5908 H   0  0  0  0  0  0  0  0  0  0  0  0
   -1.7393   -3.4085   -1.9117 H   0  0  0  0  0  0  0  0  0  0  0  0
   -1.8999   -1.1904   -2.8775 S   0  0  0  0  0  0  0  0  0  0  0  0
   -0.3314   -0.5451   -3.3223 C   0  0  0  0  0  0  0  0  0  0  0  0
   -0.2025    0.3751   -2.9322 H   0  0  0  0  0  0  0  0  0  0  0  0
    0.4069   -1.1402   -2.9802 H   0  0  0  0  0  0  0  0  0  0  0  0
   -0.2464   -0.4788   -4.3246 H   0  0  0  0  0  0  0  0  0  0  0  0
  1  5  1  0
  5  8  1  0
  1  2  1  0
  1  3  1  0
  1  4  1  0
  5  6  1  0
  5  7  1  0
  8  9  1  0
  8 10  1  0
  8 11  1  0
 12 16  1  0
 16 17  1  0
 12 13  1  0
 12 14  1  0
 12 15  1  0
 17 18  1  0
 17 19  1  0
 17 20  1  0
M  CHG  1   8   1
M  END
>  <PDB_ID>  (772) 
pdb1wwz

>  <RESIDUE_NAME>  (772) 
LYS   MET

>  <FRAG_NAME>  (772) 
ETAM   MSM

>  <FRAG_ATOM_NUM>  (772) 
fragi: 11  fragj: 9

>  <atom.prop.CHAIN_ID>  (772) 
A A A A A A A A A A A Z Z Z Z Z Z Z Z Z

>  <atom.prop.IS_HEAVY_ATOM>  (772) 
1 0 0 0 1 0 0 1 0 0 0 1 0 0 0 1 1 0 0 0

>  <DIFUSE_FUNC_ATOM>  (772) 
n/a

>  <FINAL_SINGLE_POINT_ENERGY>  (772) 
0

>  <NONCOV_INTER_ENERGY_QM>  (772) 
0

>  <FF_Energy>  (772) 
-2.73

>  <QM_Energy>  (772) 
-9.67

>  <source>  (772) 
ETAM_MSM

>  <Index>  (772) 
4667

$$$$
ETAM-pdb1wza-A-LYS-472:MSM-pdb1wza-A-MET-501
     RDKit          3D

 20 18  0  0  0  0  0  0  0  0999 V2000
    1.2450    0.8726    0.0000 C   0  0  0  0  0  0  0  0  0  0  0  0
    1.2260    1.4543    0.8066 H   0  0  0  0  0  0  0  0  0  0  0  0
    1.2459    1.4250   -0.8270 H   0  0  0  0  0  0  0  0  0  0  0  0
    2.1531    0.2699    0.0224 H   0  0  0  0  0  0  0  0  0  0  0  0
    0.0000    0.0000    0.0000 C   0  0  0  0  0  0  0  0  0  0  0  0
    0.0099   -0.5823   -0.8161 H   0  0  0  0  0  0  0  0  0  0  0  0
    0.0095   -0.5821    0.8167 H   0  0  0  0  0  0  0  0  0  0  0  0
   -1.2450    0.8196   -0.0000 N   0  0  0  0  0  4  0  0  0  0  0  0
   -1.3996    1.1862    0.9165 H   0  0  0  0  0  0  0  0  0  0  0  0
   -1.1456    1.5719   -0.6497 H   0  0  0  0  0  0  0  0  0  0  0  0
   -2.0187    0.2455   -0.2669 H   0  0  0  0  0  0  0  0  0  0  0  0
    2.8675    2.3642   -3.9942 C   0  0  0  0  0  0  0  0  0  0  0  0
    3.2763    1.4321   -3.8461 H   0  0  0  0  0  0  0  0  0  0  0  0
    3.5802    3.0253   -3.6587 H   0  0  0  0  0  0  0  0  0  0  0  0
    2.7328    2.5156   -5.0651 H   0  0  0  0  0  0  0  0  0  0  0  0
    1.3391    2.5452   -3.0540 S   0  0  0  0  0  0  0  0  0  0  0  0
    0.9747    4.2561   -3.2967 C   0  0  0  0  0  0  0  0  0  0  0  0
    1.6727    4.8270   -2.8518 H   0  0  0  0  0  0  0  0  0  0  0  0
    0.9587    4.4733   -4.2780 H   0  0  0  0  0  0  0  0  0  0  0  0
    0.0769    4.4805   -2.9038 H   0  0  0  0  0  0  0  0  0  0  0  0
  1  5  1  0
  5  8  1  0
  1  2  1  0
  1  3  1  0
  1  4  1  0
  5  6  1  0
  5  7  1  0
  8  9  1  0
  8 10  1  0
  8 11  1  0
 12 16  1  0
 16 17  1  0
 12 13  1  0
 12 14  1  0
 12 15  1  0
 17 18  1  0
 17 19  1  0
 17 20  1  0
M  CHG  1   8   1
M  END
>  <PDB_ID>  (773) 
pdb1wza

>  <RESIDUE_NAME>  (773) 
LYS   MET

>  <FRAG_NAME>  (773) 
ETAM   MSM

>  <FRAG_ATOM_NUM>  (773) 
fragi: 11  fragj: 9

>  <atom.prop.CHAIN_ID>  (773) 
A A A A A A A A A A A Z Z Z Z Z Z Z Z Z

>  <atom.prop.IS_HEAVY_ATOM>  (773) 
1 0 0 0 1 0 0 1 0 0 0 1 0 0 0 1 1 0 0 0

>  <DIFUSE_FUNC_ATOM>  (773) 
n/a

>  <FINAL_SINGLE_POINT_ENERGY>  (773) 
0

>  <NONCOV_INTER_ENERGY_QM>  (773) 
0

>  <FF_Energy>  (773) 
-1.88

>  <QM_Energy>  (773) 
-7.02

>  <source>  (773) 
ETAM_MSM

>  <Index>  (773) 
4690

$$$$
ETAM-pdb1x0u-F-LYS-156:MSM-pdb1x0u-F-MET-160
     RDKit          3D

 20 18  0  0  0  0  0  0  0  0999 V2000
    1.2533    0.8795    0.0000 C   0  0  0  0  0  0  0  0  0  0  0  0
    2.0390    0.3054   -0.1801 H   0  0  0  0  0  0  0  0  0  0  0  0
    1.3260    1.3210    0.8815 H   0  0  0  0  0  0  0  0  0  0  0  0
    1.1854    1.6416   -0.7763 H   0  0  0  0  0  0  0  0  0  0  0  0
    0.0000    0.0000    0.0000 C   0  0  0  0  0  0  0  0  0  0  0  0
    0.0138   -0.5798   -0.8160 H   0  0  0  0  0  0  0  0  0  0  0  0
    0.0127   -0.5797    0.8163 H   0  0  0  0  0  0  0  0  0  0  0  0
   -1.2533    0.8184   -0.0000 N   0  0  0  0  0  4  0  0  0  0  0  0
   -1.1895    1.5145   -0.7117 H   0  0  0  0  0  0  0  0  0  0  0  0
   -2.0333    0.2223   -0.1787 H   0  0  0  0  0  0  0  0  0  0  0  0
   -1.3591    1.2546    0.8914 H   0  0  0  0  0  0  0  0  0  0  0  0
   -2.9180    4.7994   -0.4750 C   0  0  0  0  0  0  0  0  0  0  0  0
   -3.9163    4.5860   -0.4027 H   0  0  0  0  0  0  0  0  0  0  0  0
   -2.5855    4.2992   -1.3041 H   0  0  0  0  0  0  0  0  0  0  0  0
   -2.8060    5.8696   -0.6488 H   0  0  0  0  0  0  0  0  0  0  0  0
   -2.0371    4.2415    1.0027 S   0  0  0  0  0  0  0  0  0  0  0  0
   -2.9676    5.1239    2.3315 C   0  0  0  0  0  0  0  0  0  0  0  0
   -3.9264    5.1431    2.0754 H   0  0  0  0  0  0  0  0  0  0  0  0
   -2.8396    4.6257    3.1801 H   0  0  0  0  0  0  0  0  0  0  0  0
   -2.6037    6.0435    2.4039 H   0  0  0  0  0  0  0  0  0  0  0  0
  1  5  1  0
  5  8  1  0
  1  2  1  0
  1  3  1  0
  1  4  1  0
  5  6  1  0
  5  7  1  0
  8  9  1  0
  8 10  1  0
  8 11  1  0
 12 16  1  0
 16 17  1  0
 12 13  1  0
 12 14  1  0
 12 15  1  0
 17 18  1  0
 17 19  1  0
 17 20  1  0
M  CHG  1   8   1
M  END
>  <PDB_ID>  (774) 
pdb1x0u

>  <RESIDUE_NAME>  (774) 
LYS   MET

>  <FRAG_NAME>  (774) 
ETAM   MSM

>  <FRAG_ATOM_NUM>  (774) 
fragi: 11  fragj: 9

>  <atom.prop.CHAIN_ID>  (774) 
A A A A A A A A A A A Z Z Z Z Z Z Z Z Z

>  <atom.prop.IS_HEAVY_ATOM>  (774) 
1 0 0 0 1 0 0 1 0 0 0 1 0 0 0 1 1 0 0 0

>  <DIFUSE_FUNC_ATOM>  (774) 
n/a

>  <FINAL_SINGLE_POINT_ENERGY>  (774) 
0

>  <NONCOV_INTER_ENERGY_QM>  (774) 
0

>  <FF_Energy>  (774) 
-4.67

>  <QM_Energy>  (774) 
-11.25

>  <source>  (774) 
ETAM_MSM

>  <Index>  (774) 
4707

$$$$
ETAM-pdb1x3o-A-LYS-9:MSM-pdb1x3o-A-MET-1
     RDKit          3D

 20 18  0  0  0  0  0  0  0  0999 V2000
    1.2447    0.8719    0.0000 C   0  0  0  0  0  0  0  0  0  0  0  0
    2.0455    0.2807    0.0542 H   0  0  0  0  0  0  0  0  0  0  0  0
    1.2089    1.4739    0.7936 H   0  0  0  0  0  0  0  0  0  0  0  0
    1.3132    1.4783   -0.9031 H   0  0  0  0  0  0  0  0  0  0  0  0
    0.0000    0.0000    0.0000 C   0  0  0  0  0  0  0  0  0  0  0  0
    0.0145   -0.5862   -0.8166 H   0  0  0  0  0  0  0  0  0  0  0  0
    0.0145   -0.5864    0.8169 H   0  0  0  0  0  0  0  0  0  0  0  0
   -1.2447    0.8068   -0.0000 N   0  0  0  0  0  4  0  0  0  0  0  0
   -1.0317    1.7488    0.2602 H   0  0  0  0  0  0  0  0  0  0  0  0
   -1.6488    0.7973   -0.9145 H   0  0  0  0  0  0  0  0  0  0  0  0
   -1.8938    0.4192    0.6543 H   0  0  0  0  0  0  0  0  0  0  0  0
    2.5832   -4.7123    0.9263 C   0  0  0  0  0  0  0  0  0  0  0  0
    1.7119   -4.8523    0.3958 H   0  0  0  0  0  0  0  0  0  0  0  0
    2.4806   -5.2998    1.7650 H   0  0  0  0  0  0  0  0  0  0  0  0
    3.4090   -5.1054    0.3335 H   0  0  0  0  0  0  0  0  0  0  0  0
    2.7850   -2.9810    1.3791 S   0  0  0  0  0  0  0  0  0  0  0  0
    2.5389   -2.2023   -0.2050 C   0  0  0  0  0  0  0  0  0  0  0  0
    3.3122   -2.4074   -0.8093 H   0  0  0  0  0  0  0  0  0  0  0  0
    1.6948   -2.5440   -0.6251 H   0  0  0  0  0  0  0  0  0  0  0  0
    2.4685   -1.2088   -0.0892 H   0  0  0  0  0  0  0  0  0  0  0  0
  1  5  1  0
  5  8  1  0
  1  2  1  0
  1  3  1  0
  1  4  1  0
  5  6  1  0
  5  7  1  0
  8  9  1  0
  8 10  1  0
  8 11  1  0
 12 16  1  0
 16 17  1  0
 12 13  1  0
 12 14  1  0
 12 15  1  0
 17 18  1  0
 17 19  1  0
 17 20  1  0
M  CHG  1   8   1
M  END
>  <PDB_ID>  (775) 
pdb1x3o

>  <RESIDUE_NAME>  (775) 
LYS   MET

>  <FRAG_NAME>  (775) 
ETAM   MSM

>  <FRAG_ATOM_NUM>  (775) 
fragi: 11  fragj: 9

>  <atom.prop.CHAIN_ID>  (775) 
A A A A A A A A A A A Z Z Z Z Z Z Z Z Z

>  <atom.prop.IS_HEAVY_ATOM>  (775) 
1 0 0 0 1 0 0 1 0 0 0 1 0 0 0 1 1 0 0 0

>  <DIFUSE_FUNC_ATOM>  (775) 
n/a

>  <FINAL_SINGLE_POINT_ENERGY>  (775) 
0

>  <NONCOV_INTER_ENERGY_QM>  (775) 
0

>  <FF_Energy>  (775) 
17.36

>  <QM_Energy>  (775) 
2.04

>  <source>  (775) 
ETAM_MSM

>  <Index>  (775) 
4712

$$$$
ETAM-pdb3b5n-K-LYS-434:MSM-pdb3b5n-L-MET-590
     RDKit          3D

 20 18  0  0  0  0  0  0  0  0999 V2000
    1.2494    0.8700    0.0000 C   0  0  0  0  0  0  0  0  0  0  0  0
    1.2020    1.4926    0.7729 H   0  0  0  0  0  0  0  0  0  0  0  0
    1.2826    1.3754   -0.8545 H   0  0  0  0  0  0  0  0  0  0  0  0
    2.1513    0.2644    0.0890 H   0  0  0  0  0  0  0  0  0  0  0  0
    0.0000    0.0000    0.0000 C   0  0  0  0  0  0  0  0  0  0  0  0
    0.0107   -0.5845   -0.8158 H   0  0  0  0  0  0  0  0  0  0  0  0
    0.0111   -0.5847    0.8168 H   0  0  0  0  0  0  0  0  0  0  0  0
   -1.2494    0.8144   -0.0000 N   0  0  0  0  0  4  0  0  0  0  0  0
   -1.9347    0.3670   -0.5727 H   0  0  0  0  0  0  0  0  0  0  0  0
   -1.5920    0.8935    0.9354 H   0  0  0  0  0  0  0  0  0  0  0  0
   -1.0502    1.7240   -0.3631 H   0  0  0  0  0  0  0  0  0  0  0  0
   -2.6306    4.2577    2.4614 C   0  0  0  0  0  0  0  0  0  0  0  0
   -3.6070    4.1357    2.7606 H   0  0  0  0  0  0  0  0  0  0  0  0
   -2.6435    4.1076    1.4438 H   0  0  0  0  0  0  0  0  0  0  0  0
   -2.3373    5.2895    2.6549 H   0  0  0  0  0  0  0  0  0  0  0  0
   -1.5623    3.0540    3.2679 S   0  0  0  0  0  0  0  0  0  0  0  0
   -2.3401    2.9495    4.8753 C   0  0  0  0  0  0  0  0  0  0  0  0
   -1.6408    2.9843    5.5909 H   0  0  0  0  0  0  0  0  0  0  0  0
   -2.9731    3.7166    4.9934 H   0  0  0  0  0  0  0  0  0  0  0  0
   -2.8459    2.0890    4.9500 H   0  0  0  0  0  0  0  0  0  0  0  0
  1  5  1  0
  5  8  1  0
  1  2  1  0
  1  3  1  0
  1  4  1  0
  5  6  1  0
  5  7  1  0
  8  9  1  0
  8 10  1  0
  8 11  1  0
 12 16  1  0
 16 17  1  0
 12 13  1  0
 12 14  1  0
 12 15  1  0
 17 18  1  0
 17 19  1  0
 17 20  1  0
M  CHG  1   8   1
M  END
>  <PDB_ID>  (776) 
pdb3b5n

>  <RESIDUE_NAME>  (776) 
LYS   MET

>  <FRAG_NAME>  (776) 
ETAM   MSM

>  <FRAG_ATOM_NUM>  (776) 
fragi: 11  fragj: 9

>  <atom.prop.CHAIN_ID>  (776) 
A A A A A A A A A A A Z Z Z Z Z Z Z Z Z

>  <atom.prop.IS_HEAVY_ATOM>  (776) 
1 0 0 0 1 0 0 1 0 0 0 1 0 0 0 1 1 0 0 0

>  <DIFUSE_FUNC_ATOM>  (776) 
n/a

>  <FINAL_SINGLE_POINT_ENERGY>  (776) 
0

>  <NONCOV_INTER_ENERGY_QM>  (776) 
0

>  <FF_Energy>  (776) 
-4.02

>  <QM_Energy>  (776) 
-10.18

>  <source>  (776) 
ETAM_MSM

>  <Index>  (776) 
4713

$$$$
ETAM-pdb1x0u-A-LYS-193:MSM-pdb1x0u-A-MET-236
     RDKit          3D

 20 18  0  0  0  0  0  0  0  0999 V2000
    1.2606    0.8742    0.0000 C   0  0  0  0  0  0  0  0  0  0  0  0
    1.0591    1.7182   -0.4950 H   0  0  0  0  0  0  0  0  0  0  0  0
    1.9897    0.3765   -0.4666 H   0  0  0  0  0  0  0  0  0  0  0  0
    1.6042    1.1342    1.0013 H   0  0  0  0  0  0  0  0  0  0  0  0
    0.0000    0.0000    0.0000 C   0  0  0  0  0  0  0  0  0  0  0  0
    0.0180   -0.5879   -0.8160 H   0  0  0  0  0  0  0  0  0  0  0  0
    0.0172   -0.5881    0.8164 H   0  0  0  0  0  0  0  0  0  0  0  0
   -1.2606    0.8012    0.0000 N   0  0  0  0  0  4  0  0  0  0  0  0
   -1.3514    1.2718    0.8768 H   0  0  0  0  0  0  0  0  0  0  0  0
   -1.2242    1.4709   -0.7395 H   0  0  0  0  0  0  0  0  0  0  0  0
   -2.0384    0.1901   -0.1369 H   0  0  0  0  0  0  0  0  0  0  0  0
    2.9763   -2.0131   -0.3242 C   0  0  0  0  0  0  0  0  0  0  0  0
    2.0111   -1.8779   -0.0151 H   0  0  0  0  0  0  0  0  0  0  0  0
    3.5661   -1.7465    0.4664 H   0  0  0  0  0  0  0  0  0  0  0  0
    3.1307   -3.0710   -0.5364 H   0  0  0  0  0  0  0  0  0  0  0  0
    3.3352   -0.9928   -1.7589 S   0  0  0  0  0  0  0  0  0  0  0  0
    1.9425   -1.4317   -2.8344 C   0  0  0  0  0  0  0  0  0  0  0  0
    1.0922   -1.3198   -2.3257 H   0  0  0  0  0  0  0  0  0  0  0  0
    1.9454   -0.8307   -3.6302 H   0  0  0  0  0  0  0  0  0  0  0  0
    2.0436   -2.3808   -3.1248 H   0  0  0  0  0  0  0  0  0  0  0  0
  1  5  1  0
  5  8  1  0
  1  2  1  0
  1  3  1  0
  1  4  1  0
  5  6  1  0
  5  7  1  0
  8  9  1  0
  8 10  1  0
  8 11  1  0
 12 16  1  0
 16 17  1  0
 12 13  1  0
 12 14  1  0
 12 15  1  0
 17 18  1  0
 17 19  1  0
 17 20  1  0
M  CHG  1   8   1
M  END
>  <PDB_ID>  (777) 
pdb1x0u

>  <RESIDUE_NAME>  (777) 
LYS   MET

>  <FRAG_NAME>  (777) 
ETAM   MSM

>  <FRAG_ATOM_NUM>  (777) 
fragi: 11  fragj: 9

>  <atom.prop.CHAIN_ID>  (777) 
A A A A A A A A A A A Z Z Z Z Z Z Z Z Z

>  <atom.prop.IS_HEAVY_ATOM>  (777) 
1 0 0 0 1 0 0 1 0 0 0 1 0 0 0 1 1 0 0 0

>  <DIFUSE_FUNC_ATOM>  (777) 
n/a

>  <FINAL_SINGLE_POINT_ENERGY>  (777) 
0

>  <NONCOV_INTER_ENERGY_QM>  (777) 
0

>  <FF_Energy>  (777) 
8.38

>  <QM_Energy>  (777) 
-0.27

>  <source>  (777) 
ETAM_MSM

>  <Index>  (777) 
4715

$$$$
ETAM-pdb3b6r-A-LYS-307:MSM-pdb3b6r-A-MET-377
     RDKit          3D

 20 18  0  0  0  0  0  0  0  0999 V2000
    1.2418    0.8761   -0.0000 C   0  0  0  0  0  0  0  0  0  0  0  0
    1.2002    1.4854   -0.7862 H   0  0  0  0  0  0  0  0  0  0  0  0
    2.0442    0.2898   -0.0610 H   0  0  0  0  0  0  0  0  0  0  0  0
    1.3112    1.4761    0.9074 H   0  0  0  0  0  0  0  0  0  0  0  0
    0.0000    0.0000    0.0000 C   0  0  0  0  0  0  0  0  0  0  0  0
    0.0115   -0.5805   -0.8160 H   0  0  0  0  0  0  0  0  0  0  0  0
    0.0113   -0.5810    0.8159 H   0  0  0  0  0  0  0  0  0  0  0  0
   -1.2418    0.8198   -0.0000 N   0  0  0  0  0  4  0  0  0  0  0  0
   -1.4764    1.0672   -0.9397 H   0  0  0  0  0  0  0  0  0  0  0  0
   -1.9884    0.2916    0.4029 H   0  0  0  0  0  0  0  0  0  0  0  0
   -1.0914    1.6500    0.5367 H   0  0  0  0  0  0  0  0  0  0  0  0
    3.7087    0.2946   -4.1949 C   0  0  0  0  0  0  0  0  0  0  0  0
    3.3496    0.7881   -5.0173 H   0  0  0  0  0  0  0  0  0  0  0  0
    2.9191   -0.2444   -3.8279 H   0  0  0  0  0  0  0  0  0  0  0  0
    4.4789   -0.4034   -4.5231 H   0  0  0  0  0  0  0  0  0  0  0  0
    4.3178    1.4608   -2.9619 S   0  0  0  0  0  0  0  0  0  0  0  0
    4.2621    0.4645   -1.4912 C   0  0  0  0  0  0  0  0  0  0  0  0
    3.3177    0.3951   -1.1593 H   0  0  0  0  0  0  0  0  0  0  0  0
    4.6070   -0.4565   -1.6882 H   0  0  0  0  0  0  0  0  0  0  0  0
    4.8291    0.8792   -0.7748 H   0  0  0  0  0  0  0  0  0  0  0  0
  1  5  1  0
  5  8  1  0
  1  2  1  0
  1  3  1  0
  1  4  1  0
  5  6  1  0
  5  7  1  0
  8  9  1  0
  8 10  1  0
  8 11  1  0
 12 16  1  0
 16 17  1  0
 12 13  1  0
 12 14  1  0
 12 15  1  0
 17 18  1  0
 17 19  1  0
 17 20  1  0
M  CHG  1   8   1
M  END
>  <PDB_ID>  (778) 
pdb3b6r

>  <RESIDUE_NAME>  (778) 
LYS   MET

>  <FRAG_NAME>  (778) 
ETAM   MSM

>  <FRAG_ATOM_NUM>  (778) 
fragi: 11  fragj: 9

>  <atom.prop.CHAIN_ID>  (778) 
A A A A A A A A A A A Z Z Z Z Z Z Z Z Z

>  <atom.prop.IS_HEAVY_ATOM>  (778) 
1 0 0 0 1 0 0 1 0 0 0 1 0 0 0 1 1 0 0 0

>  <DIFUSE_FUNC_ATOM>  (778) 
n/a

>  <FINAL_SINGLE_POINT_ENERGY>  (778) 
0

>  <NONCOV_INTER_ENERGY_QM>  (778) 
0

>  <FF_Energy>  (778) 
7.4

>  <QM_Energy>  (778) 
2.04

>  <source>  (778) 
ETAM_MSM

>  <Index>  (778) 
4719

$$$$
ETAM-pdb3b6r-B-LYS-307:MSM-pdb3b6r-B-MET-377
     RDKit          3D

 20 18  0  0  0  0  0  0  0  0999 V2000
    1.2524    0.8730    0.0000 C   0  0  0  0  0  0  0  0  0  0  0  0
    1.2292    1.4594   -0.8036 H   0  0  0  0  0  0  0  0  0  0  0  0
    2.0505    0.2800   -0.0290 H   0  0  0  0  0  0  0  0  0  0  0  0
    1.3112    1.5000    0.8896 H   0  0  0  0  0  0  0  0  0  0  0  0
    0.0000    0.0000    0.0000 C   0  0  0  0  0  0  0  0  0  0  0  0
    0.0140   -0.5850   -0.8166 H   0  0  0  0  0  0  0  0  0  0  0  0
    0.0139   -0.5848    0.8162 H   0  0  0  0  0  0  0  0  0  0  0  0
   -1.2524    0.8105   -0.0000 N   0  0  0  0  0  4  0  0  0  0  0  0
   -1.2979    1.3479   -0.8408 H   0  0  0  0  0  0  0  0  0  0  0  0
   -2.0412    0.1994    0.0512 H   0  0  0  0  0  0  0  0  0  0  0  0
   -1.2497    1.4219    0.7902 H   0  0  0  0  0  0  0  0  0  0  0  0
    5.4645   -2.3810   -1.0276 C   0  0  0  0  0  0  0  0  0  0  0  0
    4.5913   -2.9191   -1.0069 H   0  0  0  0  0  0  0  0  0  0  0  0
    6.2149   -3.0807   -1.0438 H   0  0  0  0  0  0  0  0  0  0  0  0
    5.4995   -1.8124   -1.9570 H   0  0  0  0  0  0  0  0  0  0  0  0
    5.6019   -1.3343    0.4348 S   0  0  0  0  0  0  0  0  0  0  0  0
    3.8777   -1.1284    0.8715 C   0  0  0  0  0  0  0  0  0  0  0  0
    3.4028   -2.0060    0.7880 H   0  0  0  0  0  0  0  0  0  0  0  0
    3.8065   -0.8022    1.8152 H   0  0  0  0  0  0  0  0  0  0  0  0
    3.4523   -0.4619    0.2570 H   0  0  0  0  0  0  0  0  0  0  0  0
  1  5  1  0
  5  8  1  0
  1  2  1  0
  1  3  1  0
  1  4  1  0
  5  6  1  0
  5  7  1  0
  8  9  1  0
  8 10  1  0
  8 11  1  0
 12 16  1  0
 16 17  1  0
 12 13  1  0
 12 14  1  0
 12 15  1  0
 17 18  1  0
 17 19  1  0
 17 20  1  0
M  CHG  1   8   1
M  END
>  <PDB_ID>  (779) 
pdb3b6r

>  <RESIDUE_NAME>  (779) 
LYS   MET

>  <FRAG_NAME>  (779) 
ETAM   MSM

>  <FRAG_ATOM_NUM>  (779) 
fragi: 11  fragj: 9

>  <atom.prop.CHAIN_ID>  (779) 
A A A A A A A A A A A Z Z Z Z Z Z Z Z Z

>  <atom.prop.IS_HEAVY_ATOM>  (779) 
1 0 0 0 1 0 0 1 0 0 0 1 0 0 0 1 1 0 0 0

>  <DIFUSE_FUNC_ATOM>  (779) 
n/a

>  <FINAL_SINGLE_POINT_ENERGY>  (779) 
0

>  <NONCOV_INTER_ENERGY_QM>  (779) 
0

>  <FF_Energy>  (779) 
12.22

>  <QM_Energy>  (779) 
3.56

>  <source>  (779) 
ETAM_MSM

>  <Index>  (779) 
4720

$$$$
ETAM-pdb1x94-B-LYS-42:MSM-pdb1x94-B-MET-190
     RDKit          3D

 20 18  0  0  0  0  0  0  0  0999 V2000
    1.2575    0.8654   -0.0000 C   0  0  0  0  0  0  0  0  0  0  0  0
    1.2212    1.4738    0.7849 H   0  0  0  0  0  0  0  0  0  0  0  0
    1.2813    1.3864   -0.8454 H   0  0  0  0  0  0  0  0  0  0  0  0
    2.1578    0.2546    0.0664 H   0  0  0  0  0  0  0  0  0  0  0  0
    0.0000    0.0000    0.0000 C   0  0  0  0  0  0  0  0  0  0  0  0
    0.0136   -0.5902   -0.8165 H   0  0  0  0  0  0  0  0  0  0  0  0
    0.0133   -0.5904    0.8162 H   0  0  0  0  0  0  0  0  0  0  0  0
   -1.2575    0.8019   -0.0000 N   0  0  0  0  0  4  0  0  0  0  0  0
   -1.9356    0.3515    0.5796 H   0  0  0  0  0  0  0  0  0  0  0  0
   -1.0665    1.7155    0.3549 H   0  0  0  0  0  0  0  0  0  0  0  0
   -1.6056    0.8704   -0.9343 H   0  0  0  0  0  0  0  0  0  0  0  0
    0.2491   -5.0710    1.7922 C   0  0  0  0  0  0  0  0  0  0  0  0
   -0.4478   -4.7594    2.4768 H   0  0  0  0  0  0  0  0  0  0  0  0
    0.6030   -5.9651    2.1467 H   0  0  0  0  0  0  0  0  0  0  0  0
   -0.2592   -5.2533    0.8454 H   0  0  0  0  0  0  0  0  0  0  0  0
    1.5788   -3.8710    1.6387 S   0  0  0  0  0  0  0  0  0  0  0  0
    0.7987   -2.4111    2.0372 C   0  0  0  0  0  0  0  0  0  0  0  0
    1.2424   -1.6096    1.5955 H   0  0  0  0  0  0  0  0  0  0  0  0
   -0.1748   -2.4081    1.7444 H   0  0  0  0  0  0  0  0  0  0  0  0
    0.8058   -2.2371    3.0385 H   0  0  0  0  0  0  0  0  0  0  0  0
  1  5  1  0
  5  8  1  0
  1  2  1  0
  1  3  1  0
  1  4  1  0
  5  6  1  0
  5  7  1  0
  8  9  1  0
  8 10  1  0
  8 11  1  0
 12 16  1  0
 16 17  1  0
 12 13  1  0
 12 14  1  0
 12 15  1  0
 17 18  1  0
 17 19  1  0
 17 20  1  0
M  CHG  1   8   1
M  END
>  <PDB_ID>  (780) 
pdb1x94

>  <RESIDUE_NAME>  (780) 
LYS   MET

>  <FRAG_NAME>  (780) 
ETAM   MSM

>  <FRAG_ATOM_NUM>  (780) 
fragi: 11  fragj: 9

>  <atom.prop.CHAIN_ID>  (780) 
A A A A A A A A A A A Z Z Z Z Z Z Z Z Z

>  <atom.prop.IS_HEAVY_ATOM>  (780) 
1 0 0 0 1 0 0 1 0 0 0 1 0 0 0 1 1 0 0 0

>  <DIFUSE_FUNC_ATOM>  (780) 
n/a

>  <FINAL_SINGLE_POINT_ENERGY>  (780) 
0

>  <NONCOV_INTER_ENERGY_QM>  (780) 
0

>  <FF_Energy>  (780) 
8.38

>  <QM_Energy>  (780) 
2.11

>  <source>  (780) 
ETAM_MSM

>  <Index>  (780) 
4723

$$$$
ETAM-pdb3b7j-A-LYS-152:MSM-pdb3b7j-A-MET-102
     RDKit          3D

 20 18  0  0  0  0  0  0  0  0999 V2000
    1.2454    0.8683   -0.0000 C   0  0  0  0  0  0  0  0  0  0  0  0
    1.1231    1.6015    0.6604 H   0  0  0  0  0  0  0  0  0  0  0  0
    1.3740    1.2419   -0.9130 H   0  0  0  0  0  0  0  0  0  0  0  0
    2.1318    0.2955    0.2729 H   0  0  0  0  0  0  0  0  0  0  0  0
    0.0000    0.0000    0.0000 C   0  0  0  0  0  0  0  0  0  0  0  0
    0.0050   -0.5810   -0.8164 H   0  0  0  0  0  0  0  0  0  0  0  0
    0.0046   -0.5802    0.8168 H   0  0  0  0  0  0  0  0  0  0  0  0
   -1.2454    0.8284    0.0000 N   0  0  0  0  0  4  0  0  0  0  0  0
   -1.6381    0.8291   -0.9176 H   0  0  0  0  0  0  0  0  0  0  0  0
   -1.8983    0.4380    0.6466 H   0  0  0  0  0  0  0  0  0  0  0  0
   -1.0177    1.7623    0.2715 H   0  0  0  0  0  0  0  0  0  0  0  0
   -0.2540   -3.7883    2.3266 C   0  0  0  0  0  0  0  0  0  0  0  0
   -1.1210   -4.3040    2.4997 H   0  0  0  0  0  0  0  0  0  0  0  0
    0.4695   -4.2715    2.8665 H   0  0  0  0  0  0  0  0  0  0  0  0
   -0.0091   -3.8788    1.2684 H   0  0  0  0  0  0  0  0  0  0  0  0
   -0.4107   -2.0712    2.8544 S   0  0  0  0  0  0  0  0  0  0  0  0
   -2.1548   -1.7561    2.5157 C   0  0  0  0  0  0  0  0  0  0  0  0
   -2.2318   -1.0941    1.7719 H   0  0  0  0  0  0  0  0  0  0  0  0
   -2.5993   -2.6112    2.2527 H   0  0  0  0  0  0  0  0  0  0  0  0
   -2.5886   -1.3902    3.3378 H   0  0  0  0  0  0  0  0  0  0  0  0
  1  5  1  0
  5  8  1  0
  1  2  1  0
  1  3  1  0
  1  4  1  0
  5  6  1  0
  5  7  1  0
  8  9  1  0
  8 10  1  0
  8 11  1  0
 12 16  1  0
 16 17  1  0
 12 13  1  0
 12 14  1  0
 12 15  1  0
 17 18  1  0
 17 19  1  0
 17 20  1  0
M  CHG  1   8   1
M  END
>  <PDB_ID>  (781) 
pdb3b7j

>  <RESIDUE_NAME>  (781) 
LYS   MET

>  <FRAG_NAME>  (781) 
ETAM   MSM

>  <FRAG_ATOM_NUM>  (781) 
fragi: 11  fragj: 9

>  <atom.prop.CHAIN_ID>  (781) 
A A A A A A A A A A A Z Z Z Z Z Z Z Z Z

>  <atom.prop.IS_HEAVY_ATOM>  (781) 
1 0 0 0 1 0 0 1 0 0 0 1 0 0 0 1 1 0 0 0

>  <DIFUSE_FUNC_ATOM>  (781) 
n/a

>  <FINAL_SINGLE_POINT_ENERGY>  (781) 
0

>  <NONCOV_INTER_ENERGY_QM>  (781) 
0

>  <FF_Energy>  (781) 
-0.27

>  <QM_Energy>  (781) 
-5.51

>  <source>  (781) 
ETAM_MSM

>  <Index>  (781) 
4729

$$$$
ETAM-pdb1xbr-A-LYS-205:MSM-pdb1xbr-A-MET-60
     RDKit          3D

 20 18  0  0  0  0  0  0  0  0999 V2000
    1.2797    0.8374   -0.0000 C   0  0  0  0  0  0  0  0  0  0  0  0
    1.1260    1.6400    0.5469 H   0  0  0  0  0  0  0  0  0  0  0  0
    1.5061    1.0588   -0.9315 H   0  0  0  0  0  0  0  0  0  0  0  0
    2.0837    0.2473    0.4398 H   0  0  0  0  0  0  0  0  0  0  0  0
    0.0000    0.0000    0.0000 C   0  0  0  0  0  0  0  0  0  0  0  0
    0.0310   -0.6224   -0.8163 H   0  0  0  0  0  0  0  0  0  0  0  0
    0.0304   -0.6226    0.8164 H   0  0  0  0  0  0  0  0  0  0  0  0
   -1.2797    0.7313   -0.0000 N   0  0  0  0  0  4  0  0  0  0  0  0
   -1.9872    0.1757   -0.4404 H   0  0  0  0  0  0  0  0  0  0  0  0
   -1.5561    0.9301    0.9429 H   0  0  0  0  0  0  0  0  0  0  0  0
   -1.1773    1.5928   -0.5014 H   0  0  0  0  0  0  0  0  0  0  0  0
   -6.0965    1.5844    0.3347 C   0  0  0  0  0  0  0  0  0  0  0  0
   -6.2081    0.7080   -0.2404 H   0  0  0  0  0  0  0  0  0  0  0  0
   -6.9922    2.0946    0.1177 H   0  0  0  0  0  0  0  0  0  0  0  0
   -6.1311    1.2929    1.3844 H   0  0  0  0  0  0  0  0  0  0  0  0
   -4.7110    2.4942   -0.1494 S   0  0  0  0  0  0  0  0  0  0  0  0
   -4.9233    2.2946   -1.8804 C   0  0  0  0  0  0  0  0  0  0  0  0
   -4.3526    1.5385   -2.2217 H   0  0  0  0  0  0  0  0  0  0  0  0
   -5.8851    2.0890   -2.0969 H   0  0  0  0  0  0  0  0  0  0  0  0
   -4.6602    3.1355   -2.3686 H   0  0  0  0  0  0  0  0  0  0  0  0
  1  5  1  0
  5  8  1  0
  1  2  1  0
  1  3  1  0
  1  4  1  0
  5  6  1  0
  5  7  1  0
  8  9  1  0
  8 10  1  0
  8 11  1  0
 12 16  1  0
 16 17  1  0
 12 13  1  0
 12 14  1  0
 12 15  1  0
 17 18  1  0
 17 19  1  0
 17 20  1  0
M  CHG  1   8   1
M  END
>  <PDB_ID>  (782) 
pdb1xbr

>  <RESIDUE_NAME>  (782) 
LYS   MET

>  <FRAG_NAME>  (782) 
ETAM   MSM

>  <FRAG_ATOM_NUM>  (782) 
fragi: 11  fragj: 9

>  <atom.prop.CHAIN_ID>  (782) 
A A A A A A A A A A A Z Z Z Z Z Z Z Z Z

>  <atom.prop.IS_HEAVY_ATOM>  (782) 
1 0 0 0 1 0 0 1 0 0 0 1 0 0 0 1 1 0 0 0

>  <DIFUSE_FUNC_ATOM>  (782) 
n/a

>  <FINAL_SINGLE_POINT_ENERGY>  (782) 
0

>  <NONCOV_INTER_ENERGY_QM>  (782) 
0

>  <FF_Energy>  (782) 
-3.81

>  <QM_Energy>  (782) 
-9.01

>  <source>  (782) 
ETAM_MSM

>  <Index>  (782) 
4735

$$$$
ETAM-pdb1x6v-A-HIP-34:MSM-pdb1x6v-B-MET-70
     RDKit          3D

 20 18  0  0  0  0  0  0  0  0999 V2000
    1.2505    0.8966    0.0000 C   0  0  0  0  0  0  0  0  0  0  0  0
    1.1513    1.5877    0.7111 H   0  0  0  0  0  0  0  0  0  0  0  0
    2.0514    0.3318    0.1843 H   0  0  0  0  0  0  0  0  0  0  0  0
    1.3881    1.3967   -0.9587 H   0  0  0  0  0  0  0  0  0  0  0  0
    0.0000    0.0000    0.0000 C   0  0  0  0  0  0  0  0  0  0  0  0
    0.0150   -0.5175   -0.8754 H   0  0  0  0  0  0  0  0  0  0  0  0
    0.0657   -0.7025    0.8309 H   0  0  0  0  0  0  0  0  0  0  0  0
   -1.2505    0.8208   -0.0000 N   0  0  0  0  0  4  0  0  0  0  0  0
   -2.0206    0.2393   -0.2468 H   0  0  0  0  0  0  0  0  0  0  0  0
   -1.3900    1.2000    0.9105 H   0  0  0  0  0  0  0  0  0  0  0  0
   -1.1547    1.5578   -0.6634 H   0  0  0  0  0  0  0  0  0  0  0  0
   -2.5155    0.0076   -5.0336 C   0  0  0  0  0  0  0  0  0  0  0  0
   -1.9818    0.2532   -5.8727 H   0  0  0  0  0  0  0  0  0  0  0  0
   -3.4169    0.4848   -5.1288 H   0  0  0  0  0  0  0  0  0  0  0  0
   -2.6454   -1.0713   -4.9492 H   0  0  0  0  0  0  0  0  0  0  0  0
   -1.6606    0.6348   -3.5803 S   0  0  0  0  0  0  0  0  0  0  0  0
   -2.1221    2.5442   -3.4952 C   0  0  0  0  0  0  0  0  0  0  0  0
   -1.3584    2.9650   -3.0591 H   0  0  0  0  0  0  0  0  0  0  0  0
   -2.2406    2.8121   -4.4255 H   0  0  0  0  0  0  0  0  0  0  0  0
   -2.9428    2.5781   -2.9687 H   0  0  0  0  0  0  0  0  0  0  0  0
  1  5  1  0
  5  8  1  0
  1  2  1  0
  1  3  1  0
  1  4  1  0
  5  6  1  0
  5  7  1  0
  8  9  1  0
  8 10  1  0
  8 11  1  0
 12 16  1  0
 16 17  1  0
 12 13  1  0
 12 14  1  0
 12 15  1  0
 17 18  1  0
 17 19  1  0
 17 20  1  0
M  CHG  1   8   1
M  END
>  <PDB_ID>  (783) 
pdb1x6v

>  <RESIDUE_NAME>  (783) 
HIP   MET

>  <FRAG_NAME>  (783) 
ETAM   MSM

>  <FRAG_ATOM_NUM>  (783) 
fragi: 11  fragj: 9

>  <atom.prop.CHAIN_ID>  (783) 
A A A A A A A A A A A Z Z Z Z Z Z Z Z Z

>  <atom.prop.IS_HEAVY_ATOM>  (783) 
1 0 0 0 1 0 0 1 0 0 0 1 0 0 0 1 1 0 0 0

>  <DIFUSE_FUNC_ATOM>  (783) 
n/a

>  <FINAL_SINGLE_POINT_ENERGY>  (783) 
0

>  <NONCOV_INTER_ENERGY_QM>  (783) 
0

>  <FF_Energy>  (783) 
-4.69

>  <QM_Energy>  (783) 
-11.02

>  <source>  (783) 
ETAM_MSM

>  <Index>  (783) 
4757

$$$$
ETAM-pdb1xjd-A-LYS-393:MSM-pdb1xjd-A-MET-385
     RDKit          3D

 20 18  0  0  0  0  0  0  0  0999 V2000
    1.2509    0.8740    0.0000 C   0  0  0  0  0  0  0  0  0  0  0  0
    1.2004    1.4960    0.7791 H   0  0  0  0  0  0  0  0  0  0  0  0
    1.2700    1.3961   -0.8506 H   0  0  0  0  0  0  0  0  0  0  0  0
    2.1677    0.2893    0.0758 H   0  0  0  0  0  0  0  0  0  0  0  0
    0.0000    0.0000    0.0000 C   0  0  0  0  0  0  0  0  0  0  0  0
    0.0060   -0.5781   -0.8162 H   0  0  0  0  0  0  0  0  0  0  0  0
    0.0058   -0.5786    0.8166 H   0  0  0  0  0  0  0  0  0  0  0  0
   -1.2509    0.8301   -0.0000 N   0  0  0  0  0  4  0  0  0  0  0  0
   -1.0189    1.7674   -0.2486 H   0  0  0  0  0  0  0  0  0  0  0  0
   -1.8921    0.4516   -0.6637 H   0  0  0  0  0  0  0  0  0  0  0  0
   -1.6537    0.8103    0.9123 H   0  0  0  0  0  0  0  0  0  0  0  0
    3.0914    3.0960    4.5142 C   0  0  0  0  0  0  0  0  0  0  0  0
    3.1213    4.0668    4.1554 H   0  0  0  0  0  0  0  0  0  0  0  0
    3.7680    2.5871    3.9189 H   0  0  0  0  0  0  0  0  0  0  0  0
    3.4629    3.0950    5.5389 H   0  0  0  0  0  0  0  0  0  0  0  0
    1.4589    2.4086    4.3475 S   0  0  0  0  0  0  0  0  0  0  0  0
    1.3769    2.3305    2.5919 C   0  0  0  0  0  0  0  0  0  0  0  0
    1.8129    1.4872    2.2561 H   0  0  0  0  0  0  0  0  0  0  0  0
    0.4187    2.3381    2.2842 H   0  0  0  0  0  0  0  0  0  0  0  0
    1.8491    3.1186    2.1819 H   0  0  0  0  0  0  0  0  0  0  0  0
  1  5  1  0
  5  8  1  0
  1  2  1  0
  1  3  1  0
  1  4  1  0
  5  6  1  0
  5  7  1  0
  8  9  1  0
  8 10  1  0
  8 11  1  0
 12 16  1  0
 16 17  1  0
 12 13  1  0
 12 14  1  0
 12 15  1  0
 17 18  1  0
 17 19  1  0
 17 20  1  0
M  CHG  1   8   1
M  END
>  <PDB_ID>  (784) 
pdb1xjd

>  <RESIDUE_NAME>  (784) 
LYS   MET

>  <FRAG_NAME>  (784) 
ETAM   MSM

>  <FRAG_ATOM_NUM>  (784) 
fragi: 11  fragj: 9

>  <atom.prop.CHAIN_ID>  (784) 
A A A A A A A A A A A Z Z Z Z Z Z Z Z Z

>  <atom.prop.IS_HEAVY_ATOM>  (784) 
1 0 0 0 1 0 0 1 0 0 0 1 0 0 0 1 1 0 0 0

>  <DIFUSE_FUNC_ATOM>  (784) 
n/a

>  <FINAL_SINGLE_POINT_ENERGY>  (784) 
0

>  <NONCOV_INTER_ENERGY_QM>  (784) 
0

>  <FF_Energy>  (784) 
37.23

>  <QM_Energy>  (784) 
7.5

>  <source>  (784) 
ETAM_MSM

>  <Index>  (784) 
4770

$$$$
ETAM-pdb1xiy-A-LYS-156:MSM-pdb1xiy-A-MET-122
     RDKit          3D

 20 18  0  0  0  0  0  0  0  0999 V2000
    1.2480    0.8727    0.0000 C   0  0  0  0  0  0  0  0  0  0  0  0
    1.2518    1.4188    0.8321 H   0  0  0  0  0  0  0  0  0  0  0  0
    1.2212    1.4627   -0.8006 H   0  0  0  0  0  0  0  0  0  0  0  0
    2.1575    0.2730   -0.0322 H   0  0  0  0  0  0  0  0  0  0  0  0
    0.0000    0.0000    0.0000 C   0  0  0  0  0  0  0  0  0  0  0  0
    0.0141   -0.5853   -0.8158 H   0  0  0  0  0  0  0  0  0  0  0  0
    0.0137   -0.5847    0.8162 H   0  0  0  0  0  0  0  0  0  0  0  0
   -1.2480    0.8097   -0.0000 N   0  0  0  0  0  4  0  0  0  0  0  0
   -1.4156    1.1607    0.9208 H   0  0  0  0  0  0  0  0  0  0  0  0
   -1.1474    1.5738   -0.6367 H   0  0  0  0  0  0  0  0  0  0  0  0
   -2.0156    0.2365   -0.2842 H   0  0  0  0  0  0  0  0  0  0  0  0
   -0.2276    5.7204   -0.1764 C   0  0  0  0  0  0  0  0  0  0  0  0
   -1.2097    5.5463    0.0409 H   0  0  0  0  0  0  0  0  0  0  0  0
   -0.1999    6.6139   -0.6703 H   0  0  0  0  0  0  0  0  0  0  0  0
    0.3221    5.8228    0.7592 H   0  0  0  0  0  0  0  0  0  0  0  0
    0.4413    4.3968   -1.2141 S   0  0  0  0  0  0  0  0  0  0  0  0
   -0.6579    4.4958   -2.6501 C   0  0  0  0  0  0  0  0  0  0  0  0
   -1.6029    4.4010   -2.3444 H   0  0  0  0  0  0  0  0  0  0  0  0
   -0.5326    5.3799   -3.0966 H   0  0  0  0  0  0  0  0  0  0  0  0
   -0.4314    3.7596   -3.2851 H   0  0  0  0  0  0  0  0  0  0  0  0
  1  5  1  0
  5  8  1  0
  1  2  1  0
  1  3  1  0
  1  4  1  0
  5  6  1  0
  5  7  1  0
  8  9  1  0
  8 10  1  0
  8 11  1  0
 12 16  1  0
 16 17  1  0
 12 13  1  0
 12 14  1  0
 12 15  1  0
 17 18  1  0
 17 19  1  0
 17 20  1  0
M  CHG  1   8   1
M  END
>  <PDB_ID>  (785) 
pdb1xiy

>  <RESIDUE_NAME>  (785) 
LYS   MET

>  <FRAG_NAME>  (785) 
ETAM   MSM

>  <FRAG_ATOM_NUM>  (785) 
fragi: 11  fragj: 9

>  <atom.prop.CHAIN_ID>  (785) 
A A A A A A A A A A A Z Z Z Z Z Z Z Z Z

>  <atom.prop.IS_HEAVY_ATOM>  (785) 
1 0 0 0 1 0 0 1 0 0 0 1 0 0 0 1 1 0 0 0

>  <DIFUSE_FUNC_ATOM>  (785) 
n/a

>  <FINAL_SINGLE_POINT_ENERGY>  (785) 
0

>  <NONCOV_INTER_ENERGY_QM>  (785) 
0

>  <FF_Energy>  (785) 
-3.75

>  <QM_Energy>  (785) 
-9.16

>  <source>  (785) 
ETAM_MSM

>  <Index>  (785) 
4771

$$$$
ETAM-pdb1xiy-B-LYS-156:MSM-pdb1xiy-B-MET-122
     RDKit          3D

 20 18  0  0  0  0  0  0  0  0999 V2000
    1.2344    0.8773   -0.0000 C   0  0  0  0  0  0  0  0  0  0  0  0
    1.1425    1.5575    0.7243 H   0  0  0  0  0  0  0  0  0  0  0  0
    1.3019    1.3326   -0.8857 H   0  0  0  0  0  0  0  0  0  0  0  0
    2.1437    0.3011    0.1714 H   0  0  0  0  0  0  0  0  0  0  0  0
    0.0000    0.0000    0.0000 C   0  0  0  0  0  0  0  0  0  0  0  0
    0.0064   -0.5759   -0.8164 H   0  0  0  0  0  0  0  0  0  0  0  0
    0.0062   -0.5763    0.8161 H   0  0  0  0  0  0  0  0  0  0  0  0
   -1.2344    0.8330   -0.0000 N   0  0  0  0  0  4  0  0  0  0  0  0
   -1.0302    1.7284    0.3949 H   0  0  0  0  0  0  0  0  0  0  0  0
   -1.5566    0.9474   -0.9389 H   0  0  0  0  0  0  0  0  0  0  0  0
   -1.9396    0.3792    0.5437 H   0  0  0  0  0  0  0  0  0  0  0  0
   -1.9711   -1.0820   -4.3922 C   0  0  0  0  0  0  0  0  0  0  0  0
   -2.7503   -0.4702   -4.1529 H   0  0  0  0  0  0  0  0  0  0  0  0
   -2.3519   -1.8097   -4.9956 H   0  0  0  0  0  0  0  0  0  0  0  0
   -1.2398   -0.5068   -4.9599 H   0  0  0  0  0  0  0  0  0  0  0  0
   -1.2411   -1.8029   -2.9014 S   0  0  0  0  0  0  0  0  0  0  0  0
   -2.4535   -3.0588   -2.5092 C   0  0  0  0  0  0  0  0  0  0  0  0
   -3.0949   -3.1580   -3.2715 H   0  0  0  0  0  0  0  0  0  0  0  0
   -1.9924   -3.9338   -2.3484 H   0  0  0  0  0  0  0  0  0  0  0  0
   -2.9577   -2.7947   -1.6846 H   0  0  0  0  0  0  0  0  0  0  0  0
  1  5  1  0
  5  8  1  0
  1  2  1  0
  1  3  1  0
  1  4  1  0
  5  6  1  0
  5  7  1  0
  8  9  1  0
  8 10  1  0
  8 11  1  0
 12 16  1  0
 16 17  1  0
 12 13  1  0
 12 14  1  0
 12 15  1  0
 17 18  1  0
 17 19  1  0
 17 20  1  0
M  CHG  1   8   1
M  END
>  <PDB_ID>  (786) 
pdb1xiy

>  <RESIDUE_NAME>  (786) 
LYS   MET

>  <FRAG_NAME>  (786) 
ETAM   MSM

>  <FRAG_ATOM_NUM>  (786) 
fragi: 11  fragj: 9

>  <atom.prop.CHAIN_ID>  (786) 
A A A A A A A A A A A Z Z Z Z Z Z Z Z Z

>  <atom.prop.IS_HEAVY_ATOM>  (786) 
1 0 0 0 1 0 0 1 0 0 0 1 0 0 0 1 1 0 0 0

>  <DIFUSE_FUNC_ATOM>  (786) 
n/a

>  <FINAL_SINGLE_POINT_ENERGY>  (786) 
0

>  <NONCOV_INTER_ENERGY_QM>  (786) 
0

>  <FF_Energy>  (786) 
-3.77

>  <QM_Energy>  (786) 
-10.42

>  <source>  (786) 
ETAM_MSM

>  <Index>  (786) 
4778

$$$$
ETAM-pdb1xhx-A-LYS-536:MSM-pdb1xhx-A-MET-554
     RDKit          3D

 20 18  0  0  0  0  0  0  0  0999 V2000
    1.2399    0.8744   -0.0000 C   0  0  0  0  0  0  0  0  0  0  0  0
    1.2365    1.4301    0.8246 H   0  0  0  0  0  0  0  0  0  0  0  0
    1.2220    1.4520   -0.8088 H   0  0  0  0  0  0  0  0  0  0  0  0
    2.1472    0.2704   -0.0156 H   0  0  0  0  0  0  0  0  0  0  0  0
    0.0000    0.0000    0.0000 C   0  0  0  0  0  0  0  0  0  0  0  0
    0.0119   -0.5818   -0.8163 H   0  0  0  0  0  0  0  0  0  0  0  0
    0.0119   -0.5821    0.8161 H   0  0  0  0  0  0  0  0  0  0  0  0
   -1.2399    0.8164   -0.0000 N   0  0  0  0  0  4  0  0  0  0  0  0
   -1.1351    1.5815   -0.6363 H   0  0  0  0  0  0  0  0  0  0  0  0
   -2.0130    0.2488   -0.2858 H   0  0  0  0  0  0  0  0  0  0  0  0
   -1.4072    1.1686    0.9215 H   0  0  0  0  0  0  0  0  0  0  0  0
    0.0143   -0.1154   -4.8493 C   0  0  0  0  0  0  0  0  0  0  0  0
   -0.9139   -0.0806   -4.4063 H   0  0  0  0  0  0  0  0  0  0  0  0
   -0.1746   -0.1779   -5.8585 H   0  0  0  0  0  0  0  0  0  0  0  0
    0.5257    0.8266   -4.6513 H   0  0  0  0  0  0  0  0  0  0  0  0
    0.9356   -1.5570   -4.2839 S   0  0  0  0  0  0  0  0  0  0  0  0
    0.0644   -1.9661   -2.7591 C   0  0  0  0  0  0  0  0  0  0  0  0
   -0.1587   -1.1238   -2.2704 H   0  0  0  0  0  0  0  0  0  0  0  0
   -0.7761   -2.4581   -2.9816 H   0  0  0  0  0  0  0  0  0  0  0  0
    0.6499   -2.5410   -2.1887 H   0  0  0  0  0  0  0  0  0  0  0  0
  1  5  1  0
  5  8  1  0
  1  2  1  0
  1  3  1  0
  1  4  1  0
  5  6  1  0
  5  7  1  0
  8  9  1  0
  8 10  1  0
  8 11  1  0
 12 16  1  0
 16 17  1  0
 12 13  1  0
 12 14  1  0
 12 15  1  0
 17 18  1  0
 17 19  1  0
 17 20  1  0
M  CHG  1   8   1
M  END
>  <PDB_ID>  (787) 
pdb1xhx

>  <RESIDUE_NAME>  (787) 
LYS   MET

>  <FRAG_NAME>  (787) 
ETAM   MSM

>  <FRAG_ATOM_NUM>  (787) 
fragi: 11  fragj: 9

>  <atom.prop.CHAIN_ID>  (787) 
A A A A A A A A A A A Z Z Z Z Z Z Z Z Z

>  <atom.prop.IS_HEAVY_ATOM>  (787) 
1 0 0 0 1 0 0 1 0 0 0 1 0 0 0 1 1 0 0 0

>  <DIFUSE_FUNC_ATOM>  (787) 
n/a

>  <FINAL_SINGLE_POINT_ENERGY>  (787) 
0

>  <NONCOV_INTER_ENERGY_QM>  (787) 
0

>  <FF_Energy>  (787) 
21.3

>  <QM_Energy>  (787) 
3.99

>  <source>  (787) 
ETAM_MSM

>  <Index>  (787) 
4780

$$$$
ETAM-pdb1xly-A-LYS-105:MSM-pdb1xly-A-MET-102
     RDKit          3D

 20 18  0  0  0  0  0  0  0  0999 V2000
    1.2706    0.8496   -0.0000 C   0  0  0  0  0  0  0  0  0  0  0  0
    1.3274    1.3305    0.8531 H   0  0  0  0  0  0  0  0  0  0  0  0
    1.2453    1.4533   -0.7730 H   0  0  0  0  0  0  0  0  0  0  0  0
    2.1303    0.1860   -0.0928 H   0  0  0  0  0  0  0  0  0  0  0  0
    0.0000    0.0000    0.0000 C   0  0  0  0  0  0  0  0  0  0  0  0
   -0.0008   -0.5886   -0.8161 H   0  0  0  0  0  0  0  0  0  0  0  0
   -0.0009   -0.5884    0.8159 H   0  0  0  0  0  0  0  0  0  0  0  0
   -1.2706    0.8229    0.0000 N   0  0  0  0  0  4  0  0  0  0  0  0
   -2.0209    0.2499   -0.3154 H   0  0  0  0  0  0  0  0  0  0  0  0
   -1.4451    1.1400    0.9273 H   0  0  0  0  0  0  0  0  0  0  0  0
   -1.1485    1.5987   -0.6121 H   0  0  0  0  0  0  0  0  0  0  0  0
   -2.3308   -3.3368   -3.1535 C   0  0  0  0  0  0  0  0  0  0  0  0
   -3.1855   -3.8991   -3.2517 H   0  0  0  0  0  0  0  0  0  0  0  0
   -1.5968   -4.0072   -2.8923 H   0  0  0  0  0  0  0  0  0  0  0  0
   -2.0835   -2.8796   -4.1116 H   0  0  0  0  0  0  0  0  0  0  0  0
   -2.5521   -2.1131   -1.8067 S   0  0  0  0  0  0  0  0  0  0  0  0
   -2.2697   -3.2587   -0.4253 C   0  0  0  0  0  0  0  0  0  0  0  0
   -2.9936   -3.1363    0.2489 H   0  0  0  0  0  0  0  0  0  0  0  0
   -2.2815   -4.1930   -0.7726 H   0  0  0  0  0  0  0  0  0  0  0  0
   -1.3840   -3.0585   -0.0150 H   0  0  0  0  0  0  0  0  0  0  0  0
  1  5  1  0
  5  8  1  0
  1  2  1  0
  1  3  1  0
  1  4  1  0
  5  6  1  0
  5  7  1  0
  8  9  1  0
  8 10  1  0
  8 11  1  0
 12 16  1  0
 16 17  1  0
 12 13  1  0
 12 14  1  0
 12 15  1  0
 17 18  1  0
 17 19  1  0
 17 20  1  0
M  CHG  1   8   1
M  END
>  <PDB_ID>  (788) 
pdb1xly

>  <RESIDUE_NAME>  (788) 
LYS   MET

>  <FRAG_NAME>  (788) 
ETAM   MSM

>  <FRAG_ATOM_NUM>  (788) 
fragi: 11  fragj: 9

>  <atom.prop.CHAIN_ID>  (788) 
A A A A A A A A A A A Z Z Z Z Z Z Z Z Z

>  <atom.prop.IS_HEAVY_ATOM>  (788) 
1 0 0 0 1 0 0 1 0 0 0 1 0 0 0 1 1 0 0 0

>  <DIFUSE_FUNC_ATOM>  (788) 
n/a

>  <FINAL_SINGLE_POINT_ENERGY>  (788) 
0

>  <NONCOV_INTER_ENERGY_QM>  (788) 
0

>  <FF_Energy>  (788) 
-5.15

>  <QM_Energy>  (788) 
-10.95

>  <source>  (788) 
ETAM_MSM

>  <Index>  (788) 
4800

$$$$
ETAM-pdb1xnd-A-LYS-56:MSM-pdb1xnd-A-MET-169
     RDKit          3D

 20 18  0  0  0  0  0  0  0  0999 V2000
    1.2615    0.9102    0.0000 C   0  0  0  0  0  0  0  0  0  0  0  0
    1.3608    1.2941    0.9050 H   0  0  0  0  0  0  0  0  0  0  0  0
    1.1296    1.6141   -0.6801 H   0  0  0  0  0  0  0  0  0  0  0  0
    2.1562    0.3381   -0.2458 H   0  0  0  0  0  0  0  0  0  0  0  0
    0.0000    0.0000    0.0000 C   0  0  0  0  0  0  0  0  0  0  0  0
    0.0546   -0.5933   -0.8167 H   0  0  0  0  0  0  0  0  0  0  0  0
    0.0541   -0.5939    0.8164 H   0  0  0  0  0  0  0  0  0  0  0  0
   -1.2615    0.7438    0.0000 N   0  0  0  0  0  4  0  0  0  0  0  0
   -1.1053    1.6852   -0.3107 H   0  0  0  0  0  0  0  0  0  0  0  0
   -1.9204    0.3029   -0.6153 H   0  0  0  0  0  0  0  0  0  0  0  0
   -1.6463    0.7667    0.9262 H   0  0  0  0  0  0  0  0  0  0  0  0
    0.8266   -3.2742   -1.8199 C   0  0  0  0  0  0  0  0  0  0  0  0
    0.4002   -3.1061   -0.9097 H   0  0  0  0  0  0  0  0  0  0  0  0
    1.8351   -3.2115   -1.6821 H   0  0  0  0  0  0  0  0  0  0  0  0
    0.5753   -4.2832   -2.1470 H   0  0  0  0  0  0  0  0  0  0  0  0
    0.2727   -2.0412   -3.0175 S   0  0  0  0  0  0  0  0  0  0  0  0
    1.8072   -1.6664   -3.8480 C   0  0  0  0  0  0  0  0  0  0  0  0
    2.1106   -2.4632   -4.3749 H   0  0  0  0  0  0  0  0  0  0  0  0
    1.6758   -0.8922   -4.4701 H   0  0  0  0  0  0  0  0  0  0  0  0
    2.5095   -1.4310   -3.1733 H   0  0  0  0  0  0  0  0  0  0  0  0
  1  5  1  0
  5  8  1  0
  1  2  1  0
  1  3  1  0
  1  4  1  0
  5  6  1  0
  5  7  1  0
  8  9  1  0
  8 10  1  0
  8 11  1  0
 12 16  1  0
 16 17  1  0
 12 13  1  0
 12 14  1  0
 12 15  1  0
 17 18  1  0
 17 19  1  0
 17 20  1  0
M  CHG  1   8   1
M  END
>  <PDB_ID>  (789) 
pdb1xnd

>  <RESIDUE_NAME>  (789) 
LYS   MET

>  <FRAG_NAME>  (789) 
ETAM   MSM

>  <FRAG_ATOM_NUM>  (789) 
fragi: 11  fragj: 9

>  <atom.prop.CHAIN_ID>  (789) 
A A A A A A A A A A A Z Z Z Z Z Z Z Z Z

>  <atom.prop.IS_HEAVY_ATOM>  (789) 
1 0 0 0 1 0 0 1 0 0 0 1 0 0 0 1 1 0 0 0

>  <DIFUSE_FUNC_ATOM>  (789) 
n/a

>  <FINAL_SINGLE_POINT_ENERGY>  (789) 
0

>  <NONCOV_INTER_ENERGY_QM>  (789) 
0

>  <FF_Energy>  (789) 
-2.72

>  <QM_Energy>  (789) 
-7.99

>  <source>  (789) 
ETAM_MSM

>  <Index>  (789) 
4809

$$$$
ETAM-pdb1xo7-B-LYS-132:MSM-pdb1xo7-B-MET-1
     RDKit          3D

 20 18  0  0  0  0  0  0  0  0999 V2000
    1.2465    0.8468   -0.0000 C   0  0  0  0  0  0  0  0  0  0  0  0
    1.2648    1.3933    0.8256 H   0  0  0  0  0  0  0  0  0  0  0  0
    1.2457    1.4213   -0.8070 H   0  0  0  0  0  0  0  0  0  0  0  0
    2.1301    0.2089   -0.0205 H   0  0  0  0  0  0  0  0  0  0  0  0
    0.0000    0.0000    0.0000 C   0  0  0  0  0  0  0  0  0  0  0  0
   -0.0289   -0.5655   -0.8158 H   0  0  0  0  0  0  0  0  0  0  0  0
   -0.0296   -0.5658    0.8165 H   0  0  0  0  0  0  0  0  0  0  0  0
   -1.2465    0.8928   -0.0000 N   0  0  0  0  0  4  0  0  0  0  0  0
   -1.4014    1.2069   -0.9279 H   0  0  0  0  0  0  0  0  0  0  0  0
   -2.0145    0.3516    0.3212 H   0  0  0  0  0  0  0  0  0  0  0  0
   -1.0779    1.6597    0.6073 H   0  0  0  0  0  0  0  0  0  0  0  0
   -3.6363    2.7150   -3.0161 C   0  0  0  0  0  0  0  0  0  0  0  0
   -2.7237    2.2820   -3.0245 H   0  0  0  0  0  0  0  0  0  0  0  0
   -3.5033    3.7145   -3.0779 H   0  0  0  0  0  0  0  0  0  0  0  0
   -4.2752    2.3367   -3.8140 H   0  0  0  0  0  0  0  0  0  0  0  0
   -4.3767    2.3809   -1.1747 S   0  0  0  0  0  0  0  0  0  0  0  0
   -5.4016    0.7979   -1.2319 C   0  0  0  0  0  0  0  0  0  0  0  0
   -6.3060    1.0513   -1.5320 H   0  0  0  0  0  0  0  0  0  0  0  0
   -4.9591    0.1908   -1.8708 H   0  0  0  0  0  0  0  0  0  0  0  0
   -5.4086    0.4267   -0.3185 H   0  0  0  0  0  0  0  0  0  0  0  0
  1  5  1  0
  5  8  1  0
  1  2  1  0
  1  3  1  0
  1  4  1  0
  5  6  1  0
  5  7  1  0
  8  9  1  0
  8 10  1  0
  8 11  1  0
 12 16  1  0
 16 17  1  0
 12 13  1  0
 12 14  1  0
 12 15  1  0
 17 18  1  0
 17 19  1  0
 17 20  1  0
M  CHG  1   8   1
M  END
>  <PDB_ID>  (790) 
pdb1xo7

>  <RESIDUE_NAME>  (790) 
LYS   MET

>  <FRAG_NAME>  (790) 
ETAM   MSM

>  <FRAG_ATOM_NUM>  (790) 
fragi: 11  fragj: 9

>  <atom.prop.CHAIN_ID>  (790) 
A A A A A A A A A A A Z Z Z Z Z Z Z Z Z

>  <atom.prop.IS_HEAVY_ATOM>  (790) 
1 0 0 0 1 0 0 1 0 0 0 1 0 0 0 1 1 0 0 0

>  <DIFUSE_FUNC_ATOM>  (790) 
n/a

>  <FINAL_SINGLE_POINT_ENERGY>  (790) 
0

>  <NONCOV_INTER_ENERGY_QM>  (790) 
0

>  <FF_Energy>  (790) 
-3.31

>  <QM_Energy>  (790) 
-9.78

>  <source>  (790) 
ETAM_MSM

>  <Index>  (790) 
4812

$$$$
ETAM-pdb1xm7-B-LYS-83:MSM-pdb1xm7-B-MET-76
     RDKit          3D

 20 18  0  0  0  0  0  0  0  0999 V2000
    1.2600    0.8536    0.0000 C   0  0  0  0  0  0  0  0  0  0  0  0
    1.1980    1.5125    0.7355 H   0  0  0  0  0  0  0  0  0  0  0  0
    1.3399    1.3023   -0.8778 H   0  0  0  0  0  0  0  0  0  0  0  0
    2.1411    0.2320    0.1595 H   0  0  0  0  0  0  0  0  0  0  0  0
    0.0000    0.0000    0.0000 C   0  0  0  0  0  0  0  0  0  0  0  0
    0.0112   -0.5954   -0.8162 H   0  0  0  0  0  0  0  0  0  0  0  0
    0.0107   -0.5958    0.8159 H   0  0  0  0  0  0  0  0  0  0  0  0
   -1.2600    0.7977    0.0000 N   0  0  0  0  0  4  0  0  0  0  0  0
   -1.6533    0.7932    0.9186 H   0  0  0  0  0  0  0  0  0  0  0  0
   -1.0563    1.7365   -0.2738 H   0  0  0  0  0  0  0  0  0  0  0  0
   -1.9075    0.3924   -0.6447 H   0  0  0  0  0  0  0  0  0  0  0  0
    1.1462    1.4959    5.6883 C   0  0  0  0  0  0  0  0  0  0  0  0
    1.9833    1.0711    6.1177 H   0  0  0  0  0  0  0  0  0  0  0  0
    0.4601    0.7264    5.6381 H   0  0  0  0  0  0  0  0  0  0  0  0
    0.7599    2.2472    6.3770 H   0  0  0  0  0  0  0  0  0  0  0  0
    1.5012    2.1517    4.0909 S   0  0  0  0  0  0  0  0  0  0  0  0
    0.2496    1.4380    3.2256 C   0  0  0  0  0  0  0  0  0  0  0  0
    0.4989    1.2603    2.2518 H   0  0  0  0  0  0  0  0  0  0  0  0
   -0.0331    0.5390    3.6171 H   0  0  0  0  0  0  0  0  0  0  0  0
   -0.5908    2.0173    3.2045 H   0  0  0  0  0  0  0  0  0  0  0  0
  1  5  1  0
  5  8  1  0
  1  2  1  0
  1  3  1  0
  1  4  1  0
  5  6  1  0
  5  7  1  0
  8  9  1  0
  8 10  1  0
  8 11  1  0
 12 16  1  0
 16 17  1  0
 12 13  1  0
 12 14  1  0
 12 15  1  0
 17 18  1  0
 17 19  1  0
 17 20  1  0
M  CHG  1   8   1
M  END
>  <PDB_ID>  (791) 
pdb1xm7

>  <RESIDUE_NAME>  (791) 
LYS   MET

>  <FRAG_NAME>  (791) 
ETAM   MSM

>  <FRAG_ATOM_NUM>  (791) 
fragi: 11  fragj: 9

>  <atom.prop.CHAIN_ID>  (791) 
A A A A A A A A A A A Z Z Z Z Z Z Z Z Z

>  <atom.prop.IS_HEAVY_ATOM>  (791) 
1 0 0 0 1 0 0 1 0 0 0 1 0 0 0 1 1 0 0 0

>  <DIFUSE_FUNC_ATOM>  (791) 
n/a

>  <FINAL_SINGLE_POINT_ENERGY>  (791) 
0

>  <NONCOV_INTER_ENERGY_QM>  (791) 
0

>  <FF_Energy>  (791) 
8.63

>  <QM_Energy>  (791) 
1.29

>  <source>  (791) 
ETAM_MSM

>  <Index>  (791) 
4816

$$$$
ETAM-pdb3bju-C-LYS-565:MSM-pdb3bju-C-MET-573
     RDKit          3D

 20 18  0  0  0  0  0  0  0  0999 V2000
    1.2515    0.8796   -0.0000 C   0  0  0  0  0  0  0  0  0  0  0  0
    1.4372    1.1556    0.9320 H   0  0  0  0  0  0  0  0  0  0  0  0
    1.0803    1.6629   -0.5791 H   0  0  0  0  0  0  0  0  0  0  0  0
    2.1029    0.3207   -0.3882 H   0  0  0  0  0  0  0  0  0  0  0  0
    0.0000    0.0000    0.0000 C   0  0  0  0  0  0  0  0  0  0  0  0
    0.0169   -0.5835   -0.8165 H   0  0  0  0  0  0  0  0  0  0  0  0
    0.0168   -0.5836    0.8161 H   0  0  0  0  0  0  0  0  0  0  0  0
   -1.2515    0.8082    0.0000 N   0  0  0  0  0  4  0  0  0  0  0  0
   -1.6664    0.7755    0.9084 H   0  0  0  0  0  0  0  0  0  0  0  0
   -1.0340    1.7547   -0.2350 H   0  0  0  0  0  0  0  0  0  0  0  0
   -1.8874    0.4326   -0.6731 H   0  0  0  0  0  0  0  0  0  0  0  0
   -2.9060    4.2306   -2.5141 C   0  0  0  0  0  0  0  0  0  0  0  0
   -3.0029    5.2559   -2.6063 H   0  0  0  0  0  0  0  0  0  0  0  0
   -3.6158    3.9690   -1.8094 H   0  0  0  0  0  0  0  0  0  0  0  0
   -3.1444    3.7553   -3.4656 H   0  0  0  0  0  0  0  0  0  0  0  0
   -1.2688    3.8172   -1.9220 S   0  0  0  0  0  0  0  0  0  0  0  0
   -1.5169    4.3444   -0.2181 C   0  0  0  0  0  0  0  0  0  0  0  0
   -1.1639    3.6425    0.4002 H   0  0  0  0  0  0  0  0  0  0  0  0
   -1.0297    5.2038   -0.0632 H   0  0  0  0  0  0  0  0  0  0  0  0
   -2.4938    4.4775   -0.0511 H   0  0  0  0  0  0  0  0  0  0  0  0
  1  5  1  0
  5  8  1  0
  1  2  1  0
  1  3  1  0
  1  4  1  0
  5  6  1  0
  5  7  1  0
  8  9  1  0
  8 10  1  0
  8 11  1  0
 12 16  1  0
 16 17  1  0
 12 13  1  0
 12 14  1  0
 12 15  1  0
 17 18  1  0
 17 19  1  0
 17 20  1  0
M  CHG  1   8   1
M  END
>  <PDB_ID>  (792) 
pdb3bju

>  <RESIDUE_NAME>  (792) 
LYS   MET

>  <FRAG_NAME>  (792) 
ETAM   MSM

>  <FRAG_ATOM_NUM>  (792) 
fragi: 11  fragj: 9

>  <atom.prop.CHAIN_ID>  (792) 
A A A A A A A A A A A Z Z Z Z Z Z Z Z Z

>  <atom.prop.IS_HEAVY_ATOM>  (792) 
1 0 0 0 1 0 0 1 0 0 0 1 0 0 0 1 1 0 0 0

>  <DIFUSE_FUNC_ATOM>  (792) 
n/a

>  <FINAL_SINGLE_POINT_ENERGY>  (792) 
0

>  <NONCOV_INTER_ENERGY_QM>  (792) 
0

>  <FF_Energy>  (792) 
-3.94

>  <QM_Energy>  (792) 
-10.44

>  <source>  (792) 
ETAM_MSM

>  <Index>  (792) 
4824

$$$$
ETAM-pdb3bju-D-LYS-565:MSM-pdb3bju-D-MET-573
     RDKit          3D

 20 18  0  0  0  0  0  0  0  0999 V2000
    1.2102    0.9006    0.0000 C   0  0  0  0  0  0  0  0  0  0  0  0
    1.1437    1.5278    0.7752 H   0  0  0  0  0  0  0  0  0  0  0  0
    1.2219    1.4211   -0.8526 H   0  0  0  0  0  0  0  0  0  0  0  0
    2.1397    0.3373    0.0823 H   0  0  0  0  0  0  0  0  0  0  0  0
    0.0000    0.0000    0.0000 C   0  0  0  0  0  0  0  0  0  0  0  0
    0.0042   -0.5585   -0.8166 H   0  0  0  0  0  0  0  0  0  0  0  0
    0.0046   -0.5583    0.8165 H   0  0  0  0  0  0  0  0  0  0  0  0
   -1.2102    0.8622   -0.0000 N   0  0  0  0  0  4  0  0  0  0  0  0
   -1.7951    0.6150   -0.7728 H   0  0  0  0  0  0  0  0  0  0  0  0
   -1.7122    0.7313    0.8544 H   0  0  0  0  0  0  0  0  0  0  0  0
   -0.9365    1.8200   -0.0824 H   0  0  0  0  0  0  0  0  0  0  0  0
   -1.5430   -0.0432   -5.2885 C   0  0  0  0  0  0  0  0  0  0  0  0
   -0.9595   -0.8328   -5.5646 H   0  0  0  0  0  0  0  0  0  0  0  0
   -1.5672    0.5905   -6.0869 H   0  0  0  0  0  0  0  0  0  0  0  0
   -2.5529   -0.4024   -5.0908 H   0  0  0  0  0  0  0  0  0  0  0  0
   -0.8697    0.7738   -3.8455 S   0  0  0  0  0  0  0  0  0  0  0  0
   -1.6785    2.3951   -3.8744 C   0  0  0  0  0  0  0  0  0  0  0  0
   -2.6248    2.2814   -4.1684 H   0  0  0  0  0  0  0  0  0  0  0  0
   -1.6528    2.7879   -2.9578 H   0  0  0  0  0  0  0  0  0  0  0  0
   -1.1931    2.9893   -4.5119 H   0  0  0  0  0  0  0  0  0  0  0  0
  1  5  1  0
  5  8  1  0
  1  2  1  0
  1  3  1  0
  1  4  1  0
  5  6  1  0
  5  7  1  0
  8  9  1  0
  8 10  1  0
  8 11  1  0
 12 16  1  0
 16 17  1  0
 12 13  1  0
 12 14  1  0
 12 15  1  0
 17 18  1  0
 17 19  1  0
 17 20  1  0
M  CHG  1   8   1
M  END
>  <PDB_ID>  (793) 
pdb3bju

>  <RESIDUE_NAME>  (793) 
LYS   MET

>  <FRAG_NAME>  (793) 
ETAM   MSM

>  <FRAG_ATOM_NUM>  (793) 
fragi: 11  fragj: 9

>  <atom.prop.CHAIN_ID>  (793) 
A A A A A A A A A A A Z Z Z Z Z Z Z Z Z

>  <atom.prop.IS_HEAVY_ATOM>  (793) 
1 0 0 0 1 0 0 1 0 0 0 1 0 0 0 1 1 0 0 0

>  <DIFUSE_FUNC_ATOM>  (793) 
n/a

>  <FINAL_SINGLE_POINT_ENERGY>  (793) 
0

>  <NONCOV_INTER_ENERGY_QM>  (793) 
0

>  <FF_Energy>  (793) 
-4.4

>  <QM_Energy>  (793) 
-10.61

>  <source>  (793) 
ETAM_MSM

>  <Index>  (793) 
4825

$$$$
ETAM-pdb1xre-A-LYS-158:MSM-pdb1xre-A-MET-145
     RDKit          3D

 20 18  0  0  0  0  0  0  0  0999 V2000
    1.2471    0.8694    0.0000 C   0  0  0  0  0  0  0  0  0  0  0  0
    1.2223    1.4457    0.8215 H   0  0  0  0  0  0  0  0  0  0  0  0
    1.2131    1.4597   -0.8117 H   0  0  0  0  0  0  0  0  0  0  0  0
    2.1694    0.2887   -0.0096 H   0  0  0  0  0  0  0  0  0  0  0  0
    0.0000    0.0000    0.0000 C   0  0  0  0  0  0  0  0  0  0  0  0
   -0.0163   -0.5620   -0.8159 H   0  0  0  0  0  0  0  0  0  0  0  0
   -0.0164   -0.5612    0.8165 H   0  0  0  0  0  0  0  0  0  0  0  0
   -1.2471    0.8833   -0.0000 N   0  0  0  0  0  4  0  0  0  0  0  0
   -1.2482    1.4216    0.8351 H   0  0  0  0  0  0  0  0  0  0  0  0
   -1.2103    1.4748   -0.7974 H   0  0  0  0  0  0  0  0  0  0  0  0
   -2.0455    0.2951   -0.0376 H   0  0  0  0  0  0  0  0  0  0  0  0
   -0.5609    5.6599    0.2739 C   0  0  0  0  0  0  0  0  0  0  0  0
   -0.0961    5.7412   -0.6409 H   0  0  0  0  0  0  0  0  0  0  0  0
   -0.2816    6.5068    0.7893 H   0  0  0  0  0  0  0  0  0  0  0  0
   -1.6365    5.7128    0.1053 H   0  0  0  0  0  0  0  0  0  0  0  0
   -0.0617    4.1838    1.1289 S   0  0  0  0  0  0  0  0  0  0  0  0
   -0.7926    4.4091    2.7549 C   0  0  0  0  0  0  0  0  0  0  0  0
   -0.1006    4.2401    3.4571 H   0  0  0  0  0  0  0  0  0  0  0  0
   -1.1325    5.3458    2.8404 H   0  0  0  0  0  0  0  0  0  0  0  0
   -1.5504    3.7670    2.8705 H   0  0  0  0  0  0  0  0  0  0  0  0
  1  5  1  0
  5  8  1  0
  1  2  1  0
  1  3  1  0
  1  4  1  0
  5  6  1  0
  5  7  1  0
  8  9  1  0
  8 10  1  0
  8 11  1  0
 12 16  1  0
 16 17  1  0
 12 13  1  0
 12 14  1  0
 12 15  1  0
 17 18  1  0
 17 19  1  0
 17 20  1  0
M  CHG  1   8   1
M  END
>  <PDB_ID>  (794) 
pdb1xre

>  <RESIDUE_NAME>  (794) 
LYS   MET

>  <FRAG_NAME>  (794) 
ETAM   MSM

>  <FRAG_ATOM_NUM>  (794) 
fragi: 11  fragj: 9

>  <atom.prop.CHAIN_ID>  (794) 
A A A A A A A A A A A Z Z Z Z Z Z Z Z Z

>  <atom.prop.IS_HEAVY_ATOM>  (794) 
1 0 0 0 1 0 0 1 0 0 0 1 0 0 0 1 1 0 0 0

>  <DIFUSE_FUNC_ATOM>  (794) 
n/a

>  <FINAL_SINGLE_POINT_ENERGY>  (794) 
0

>  <NONCOV_INTER_ENERGY_QM>  (794) 
0

>  <FF_Energy>  (794) 
-5.04

>  <QM_Energy>  (794) 
-11.91

>  <source>  (794) 
ETAM_MSM

>  <Index>  (794) 
4831

$$$$
ETAM-pdb3bv0-A-LYS-133:MSM-pdb3bv0-B-MET-165
     RDKit          3D

 20 18  0  0  0  0  0  0  0  0999 V2000
    1.2265    0.8716   -0.0000 C   0  0  0  0  0  0  0  0  0  0  0  0
    2.0246    0.3070    0.1998 H   0  0  0  0  0  0  0  0  0  0  0  0
    1.1246    1.5742    0.7011 H   0  0  0  0  0  0  0  0  0  0  0  0
    1.3761    1.3584   -0.9638 H   0  0  0  0  0  0  0  0  0  0  0  0
    0.0000    0.0000    0.0000 C   0  0  0  0  0  0  0  0  0  0  0  0
   -0.0058   -0.5699   -0.8164 H   0  0  0  0  0  0  0  0  0  0  0  0
   -0.0057   -0.5691    0.8167 H   0  0  0  0  0  0  0  0  0  0  0  0
   -1.2265    0.8586    0.0000 N   0  0  0  0  0  4  0  0  0  0  0  0
   -2.0350    0.2743   -0.0229 H   0  0  0  0  0  0  0  0  0  0  0  0
   -1.2358    1.4163    0.8275 H   0  0  0  0  0  0  0  0  0  0  0  0
   -1.2125    1.4483   -0.8052 H   0  0  0  0  0  0  0  0  0  0  0  0
   -4.1191   -2.9242   -0.2521 C   0  0  0  0  0  0  0  0  0  0  0  0
   -4.7650   -2.5222    0.4139 H   0  0  0  0  0  0  0  0  0  0  0  0
   -3.5256   -3.5718    0.2482 H   0  0  0  0  0  0  0  0  0  0  0  0
   -4.6784   -3.4632   -1.0168 H   0  0  0  0  0  0  0  0  0  0  0  0
   -3.1384   -1.6429   -1.0411 S   0  0  0  0  0  0  0  0  0  0  0  0
   -4.3245   -0.3351   -1.2172 C   0  0  0  0  0  0  0  0  0  0  0  0
   -3.9792    0.3599   -1.8548 H   0  0  0  0  0  0  0  0  0  0  0  0
   -5.1894   -0.7005   -1.5717 H   0  0  0  0  0  0  0  0  0  0  0  0
   -4.4948    0.0974   -0.3270 H   0  0  0  0  0  0  0  0  0  0  0  0
  1  5  1  0
  5  8  1  0
  1  2  1  0
  1  3  1  0
  1  4  1  0
  5  6  1  0
  5  7  1  0
  8  9  1  0
  8 10  1  0
  8 11  1  0
 12 16  1  0
 16 17  1  0
 12 13  1  0
 12 14  1  0
 12 15  1  0
 17 18  1  0
 17 19  1  0
 17 20  1  0
M  CHG  1   8   1
M  END
>  <PDB_ID>  (795) 
pdb3bv0

>  <RESIDUE_NAME>  (795) 
LYS   MET

>  <FRAG_NAME>  (795) 
ETAM   MSM

>  <FRAG_ATOM_NUM>  (795) 
fragi: 11  fragj: 9

>  <atom.prop.CHAIN_ID>  (795) 
A A A A A A A A A A A Z Z Z Z Z Z Z Z Z

>  <atom.prop.IS_HEAVY_ATOM>  (795) 
1 0 0 0 1 0 0 1 0 0 0 1 0 0 0 1 1 0 0 0

>  <DIFUSE_FUNC_ATOM>  (795) 
n/a

>  <FINAL_SINGLE_POINT_ENERGY>  (795) 
0

>  <NONCOV_INTER_ENERGY_QM>  (795) 
0

>  <FF_Energy>  (795) 
-4.98

>  <QM_Energy>  (795) 
-13.63

>  <source>  (795) 
ETAM_MSM

>  <Index>  (795) 
4875

$$$$
ETAM-pdb1xzw-B-LYS-555:MSM-pdb1xzw-B-MET-570
     RDKit          3D

 20 18  0  0  0  0  0  0  0  0999 V2000
    1.2447    0.8757   -0.0000 C   0  0  0  0  0  0  0  0  0  0  0  0
    1.2044    1.4827    0.7909 H   0  0  0  0  0  0  0  0  0  0  0  0
    1.2523    1.4148   -0.8396 H   0  0  0  0  0  0  0  0  0  0  0  0
    2.1626    0.2901    0.0522 H   0  0  0  0  0  0  0  0  0  0  0  0
    0.0000    0.0000    0.0000 C   0  0  0  0  0  0  0  0  0  0  0  0
    0.0079   -0.5780   -0.8165 H   0  0  0  0  0  0  0  0  0  0  0  0
    0.0081   -0.5783    0.8163 H   0  0  0  0  0  0  0  0  0  0  0  0
   -1.2447    0.8286    0.0000 N   0  0  0  0  0  4  0  0  0  0  0  0
   -1.9979    0.2893   -0.3740 H   0  0  0  0  0  0  0  0  0  0  0  0
   -1.4572    1.1011    0.9362 H   0  0  0  0  0  0  0  0  0  0  0  0
   -1.0987    1.6406   -0.5628 H   0  0  0  0  0  0  0  0  0  0  0  0
    2.1356   -3.7473    2.5221 C   0  0  0  0  0  0  0  0  0  0  0  0
    3.1184   -3.8477    2.2659 H   0  0  0  0  0  0  0  0  0  0  0  0
    1.6913   -4.6401    2.3052 H   0  0  0  0  0  0  0  0  0  0  0  0
    2.0763   -3.5847    3.5982 H   0  0  0  0  0  0  0  0  0  0  0  0
    1.3663   -2.4080    1.6160 S   0  0  0  0  0  0  0  0  0  0  0  0
   -0.3913   -2.7793    1.9438 C   0  0  0  0  0  0  0  0  0  0  0  0
   -0.6030   -3.6764    1.5674 H   0  0  0  0  0  0  0  0  0  0  0  0
   -0.5391   -2.7743    2.9279 H   0  0  0  0  0  0  0  0  0  0  0  0
   -0.9506   -2.0816    1.5067 H   0  0  0  0  0  0  0  0  0  0  0  0
  1  5  1  0
  5  8  1  0
  1  2  1  0
  1  3  1  0
  1  4  1  0
  5  6  1  0
  5  7  1  0
  8  9  1  0
  8 10  1  0
  8 11  1  0
 12 16  1  0
 16 17  1  0
 12 13  1  0
 12 14  1  0
 12 15  1  0
 17 18  1  0
 17 19  1  0
 17 20  1  0
M  CHG  1   8   1
M  END
>  <PDB_ID>  (796) 
pdb1xzw

>  <RESIDUE_NAME>  (796) 
LYS   MET

>  <FRAG_NAME>  (796) 
ETAM   MSM

>  <FRAG_ATOM_NUM>  (796) 
fragi: 11  fragj: 9

>  <atom.prop.CHAIN_ID>  (796) 
A A A A A A A A A A A Z Z Z Z Z Z Z Z Z

>  <atom.prop.IS_HEAVY_ATOM>  (796) 
1 0 0 0 1 0 0 1 0 0 0 1 0 0 0 1 1 0 0 0

>  <DIFUSE_FUNC_ATOM>  (796) 
n/a

>  <FINAL_SINGLE_POINT_ENERGY>  (796) 
0

>  <NONCOV_INTER_ENERGY_QM>  (796) 
0

>  <FF_Energy>  (796) 
4.98

>  <QM_Energy>  (796) 
-4.04

>  <source>  (796) 
ETAM_MSM

>  <Index>  (796) 
4877

$$$$
ETAM-pdb1y1e-X-LYS-223:MSM-pdb1y1e-X-MET-91
     RDKit          3D

 20 18  0  0  0  0  0  0  0  0999 V2000
    1.2587    0.8833   -0.0000 C   0  0  0  0  0  0  0  0  0  0  0  0
    1.1874    1.5154    0.7692 H   0  0  0  0  0  0  0  0  0  0  0  0
    1.2720    1.3942   -0.8569 H   0  0  0  0  0  0  0  0  0  0  0  0
    2.1737    0.2979    0.0918 H   0  0  0  0  0  0  0  0  0  0  0  0
    0.0000    0.0000    0.0000 C   0  0  0  0  0  0  0  0  0  0  0  0
    0.0265   -0.5885   -0.8159 H   0  0  0  0  0  0  0  0  0  0  0  0
    0.0258   -0.5886    0.8162 H   0  0  0  0  0  0  0  0  0  0  0  0
   -1.2587    0.7891    0.0000 N   0  0  0  0  0  4  0  0  0  0  0  0
   -1.0591    1.7350    0.2553 H   0  0  0  0  0  0  0  0  0  0  0  0
   -1.6642    0.7686   -0.9139 H   0  0  0  0  0  0  0  0  0  0  0  0
   -1.8998    0.3938    0.6584 H   0  0  0  0  0  0  0  0  0  0  0  0
   -1.6092    0.8020   -3.6754 C   0  0  0  0  0  0  0  0  0  0  0  0
   -1.7992    1.6507   -3.1319 H   0  0  0  0  0  0  0  0  0  0  0  0
   -2.2032    0.0736   -3.2649 H   0  0  0  0  0  0  0  0  0  0  0  0
   -1.9308    0.9722   -4.7029 H   0  0  0  0  0  0  0  0  0  0  0  0
    0.1278    0.3471   -3.5649 S   0  0  0  0  0  0  0  0  0  0  0  0
    0.9520    1.9214   -3.7629 C   0  0  0  0  0  0  0  0  0  0  0  0
    0.9768    2.1692   -4.7331 H   0  0  0  0  0  0  0  0  0  0  0  0
    0.4567    2.6278   -3.2537 H   0  0  0  0  0  0  0  0  0  0  0  0
    1.8889    1.8585   -3.4141 H   0  0  0  0  0  0  0  0  0  0  0  0
  1  5  1  0
  5  8  1  0
  1  2  1  0
  1  3  1  0
  1  4  1  0
  5  6  1  0
  5  7  1  0
  8  9  1  0
  8 10  1  0
  8 11  1  0
 12 16  1  0
 16 17  1  0
 12 13  1  0
 12 14  1  0
 12 15  1  0
 17 18  1  0
 17 19  1  0
 17 20  1  0
M  CHG  1   8   1
M  END
>  <PDB_ID>  (797) 
pdb1y1e

>  <RESIDUE_NAME>  (797) 
LYS   MET

>  <FRAG_NAME>  (797) 
ETAM   MSM

>  <FRAG_ATOM_NUM>  (797) 
fragi: 11  fragj: 9

>  <atom.prop.CHAIN_ID>  (797) 
A A A A A A A A A A A Z Z Z Z Z Z Z Z Z

>  <atom.prop.IS_HEAVY_ATOM>  (797) 
1 0 0 0 1 0 0 1 0 0 0 1 0 0 0 1 1 0 0 0

>  <DIFUSE_FUNC_ATOM>  (797) 
n/a

>  <FINAL_SINGLE_POINT_ENERGY>  (797) 
0

>  <NONCOV_INTER_ENERGY_QM>  (797) 
0

>  <FF_Energy>  (797) 
-3.26

>  <QM_Energy>  (797) 
-8.36

>  <source>  (797) 
ETAM_MSM

>  <Index>  (797) 
4878

$$$$
ETAM-pdb3bv0-B-LYS-133:MSM-pdb3bv0-A-MET-165
     RDKit          3D

 20 18  0  0  0  0  0  0  0  0999 V2000
    1.2503    0.8547    0.0000 C   0  0  0  0  0  0  0  0  0  0  0  0
    1.0518    1.7138    0.4636 H   0  0  0  0  0  0  0  0  0  0  0  0
    1.5203    1.0276   -0.9427 H   0  0  0  0  0  0  0  0  0  0  0  0
    2.0739    0.3613    0.5160 H   0  0  0  0  0  0  0  0  0  0  0  0
    0.0000    0.0000    0.0000 C   0  0  0  0  0  0  0  0  0  0  0  0
    0.0048   -0.5893   -0.8159 H   0  0  0  0  0  0  0  0  0  0  0  0
    0.0043   -0.5895    0.8159 H   0  0  0  0  0  0  0  0  0  0  0  0
   -1.2503    0.8158    0.0000 N   0  0  0  0  0  4  0  0  0  0  0  0
   -1.8414    0.5118   -0.7454 H   0  0  0  0  0  0  0  0  0  0  0  0
   -1.7215    0.6969    0.8725 H   0  0  0  0  0  0  0  0  0  0  0  0
   -1.0154    1.7785   -0.1273 H   0  0  0  0  0  0  0  0  0  0  0  0
   -4.3326    1.4316    3.0566 C   0  0  0  0  0  0  0  0  0  0  0  0
   -5.1175    1.1550    2.4720 H   0  0  0  0  0  0  0  0  0  0  0  0
   -4.1032    2.3902    2.8046 H   0  0  0  0  0  0  0  0  0  0  0  0
   -4.6493    1.4103    4.0994 H   0  0  0  0  0  0  0  0  0  0  0  0
   -2.9132    0.3409    2.7805 S   0  0  0  0  0  0  0  0  0  0  0  0
   -1.6760    1.1103    3.7838 C   0  0  0  0  0  0  0  0  0  0  0  0
   -1.5381    0.5841    4.6294 H   0  0  0  0  0  0  0  0  0  0  0  0
   -0.8045    1.1558    3.2858 H   0  0  0  0  0  0  0  0  0  0  0  0
   -1.9581    2.0434    4.0271 H   0  0  0  0  0  0  0  0  0  0  0  0
  1  5  1  0
  5  8  1  0
  1  2  1  0
  1  3  1  0
  1  4  1  0
  5  6  1  0
  5  7  1  0
  8  9  1  0
  8 10  1  0
  8 11  1  0
 12 16  1  0
 16 17  1  0
 12 13  1  0
 12 14  1  0
 12 15  1  0
 17 18  1  0
 17 19  1  0
 17 20  1  0
M  CHG  1   8   1
M  END
>  <PDB_ID>  (798) 
pdb3bv0

>  <RESIDUE_NAME>  (798) 
LYS   MET

>  <FRAG_NAME>  (798) 
ETAM   MSM

>  <FRAG_ATOM_NUM>  (798) 
fragi: 11  fragj: 9

>  <atom.prop.CHAIN_ID>  (798) 
A A A A A A A A A A A Z Z Z Z Z Z Z Z Z

>  <atom.prop.IS_HEAVY_ATOM>  (798) 
1 0 0 0 1 0 0 1 0 0 0 1 0 0 0 1 1 0 0 0

>  <DIFUSE_FUNC_ATOM>  (798) 
n/a

>  <FINAL_SINGLE_POINT_ENERGY>  (798) 
0

>  <NONCOV_INTER_ENERGY_QM>  (798) 
0

>  <FF_Energy>  (798) 
-5.32

>  <QM_Energy>  (798) 
-16.54

>  <source>  (798) 
ETAM_MSM

>  <Index>  (798) 
4885

$$$$
ETAM-pdb1y4j-A-LYS-161:MSM-pdb1y4j-A-MET-30
     RDKit          3D

 20 18  0  0  0  0  0  0  0  0999 V2000
    1.2553    0.8209    0.0000 C   0  0  0  0  0  0  0  0  0  0  0  0
    1.1721    1.5395    0.7016 H   0  0  0  0  0  0  0  0  0  0  0  0
    1.3493    1.2680   -0.8986 H   0  0  0  0  0  0  0  0  0  0  0  0
    2.1586    0.2439    0.1985 H   0  0  0  0  0  0  0  0  0  0  0  0
    0.0000    0.0000    0.0000 C   0  0  0  0  0  0  0  0  0  0  0  0
   -0.0201   -0.5916   -0.8164 H   0  0  0  0  0  0  0  0  0  0  0  0
   -0.0198   -0.5917    0.8162 H   0  0  0  0  0  0  0  0  0  0  0  0
   -1.2553    0.8432    0.0000 N   0  0  0  0  0  4  0  0  0  0  0  0
   -1.4808    1.0807   -0.9400 H   0  0  0  0  0  0  0  0  0  0  0  0
   -1.9945    0.3154    0.4078 H   0  0  0  0  0  0  0  0  0  0  0  0
   -1.0867    1.6676    0.5326 H   0  0  0  0  0  0  0  0  0  0  0  0
   -1.5907    0.4709   -3.8088 C   0  0  0  0  0  0  0  0  0  0  0  0
   -1.7724    1.4200   -3.4459 H   0  0  0  0  0  0  0  0  0  0  0  0
   -2.2628   -0.1307   -3.3056 H   0  0  0  0  0  0  0  0  0  0  0  0
   -1.8565    0.4602   -4.8659 H   0  0  0  0  0  0  0  0  0  0  0  0
    0.0875   -0.0303   -3.4918 S   0  0  0  0  0  0  0  0  0  0  0  0
    1.0202    1.4176   -3.9051 C   0  0  0  0  0  0  0  0  0  0  0  0
    1.7679    1.1803   -4.5322 H   0  0  0  0  0  0  0  0  0  0  0  0
    0.4275    2.0950   -4.3502 H   0  0  0  0  0  0  0  0  0  0  0  0
    1.4107    1.8257   -3.0750 H   0  0  0  0  0  0  0  0  0  0  0  0
  1  5  1  0
  5  8  1  0
  1  2  1  0
  1  3  1  0
  1  4  1  0
  5  6  1  0
  5  7  1  0
  8  9  1  0
  8 10  1  0
  8 11  1  0
 12 16  1  0
 16 17  1  0
 12 13  1  0
 12 14  1  0
 12 15  1  0
 17 18  1  0
 17 19  1  0
 17 20  1  0
M  CHG  1   8   1
M  END
>  <PDB_ID>  (799) 
pdb1y4j

>  <RESIDUE_NAME>  (799) 
LYS   MET

>  <FRAG_NAME>  (799) 
ETAM   MSM

>  <FRAG_ATOM_NUM>  (799) 
fragi: 11  fragj: 9

>  <atom.prop.CHAIN_ID>  (799) 
A A A A A A A A A A A Z Z Z Z Z Z Z Z Z

>  <atom.prop.IS_HEAVY_ATOM>  (799) 
1 0 0 0 1 0 0 1 0 0 0 1 0 0 0 1 1 0 0 0

>  <DIFUSE_FUNC_ATOM>  (799) 
n/a

>  <FINAL_SINGLE_POINT_ENERGY>  (799) 
0

>  <NONCOV_INTER_ENERGY_QM>  (799) 
0

>  <FF_Energy>  (799) 
-3.04

>  <QM_Energy>  (799) 
-8.51

>  <source>  (799) 
ETAM_MSM

>  <Index>  (799) 
4886

$$$$
ETAM-pdb1y3n-A-LYS-457:MSM-pdb1y3n-A-MET-448
     RDKit          3D

 20 18  0  0  0  0  0  0  0  0999 V2000
    1.2452    0.8764   -0.0000 C   0  0  0  0  0  0  0  0  0  0  0  0
    1.2293    1.4462    0.8117 H   0  0  0  0  0  0  0  0  0  0  0  0
    1.2393    1.4314   -0.8213 H   0  0  0  0  0  0  0  0  0  0  0  0
    2.1471    0.2645    0.0112 H   0  0  0  0  0  0  0  0  0  0  0  0
    0.0000    0.0000    0.0000 C   0  0  0  0  0  0  0  0  0  0  0  0
    0.0152   -0.5840   -0.8165 H   0  0  0  0  0  0  0  0  0  0  0  0
    0.0153   -0.5838    0.8163 H   0  0  0  0  0  0  0  0  0  0  0  0
   -1.2452    0.8098    0.0000 N   0  0  0  0  0  4  0  0  0  0  0  0
   -1.9000    0.4132   -0.6435 H   0  0  0  0  0  0  0  0  0  0  0  0
   -1.6400    0.8131    0.9186 H   0  0  0  0  0  0  0  0  0  0  0  0
   -1.0323    1.7476   -0.2754 H   0  0  0  0  0  0  0  0  0  0  0  0
   -1.3492    5.9965    0.7809 C   0  0  0  0  0  0  0  0  0  0  0  0
   -2.2395    5.9976    1.2815 H   0  0  0  0  0  0  0  0  0  0  0  0
   -1.4188    6.7332    0.0764 H   0  0  0  0  0  0  0  0  0  0  0  0
   -0.5544    6.2542    1.4809 H   0  0  0  0  0  0  0  0  0  0  0  0
   -1.0613    4.3929   -0.0017 S   0  0  0  0  0  0  0  0  0  0  0  0
    0.1812    4.8463   -1.1831 C   0  0  0  0  0  0  0  0  0  0  0  0
   -0.0215    4.4286   -2.0733 H   0  0  0  0  0  0  0  0  0  0  0  0
    0.2070    5.8439   -1.2910 H   0  0  0  0  0  0  0  0  0  0  0  0
    1.0826    4.5304   -0.8742 H   0  0  0  0  0  0  0  0  0  0  0  0
  1  5  1  0
  5  8  1  0
  1  2  1  0
  1  3  1  0
  1  4  1  0
  5  6  1  0
  5  7  1  0
  8  9  1  0
  8 10  1  0
  8 11  1  0
 12 16  1  0
 16 17  1  0
 12 13  1  0
 12 14  1  0
 12 15  1  0
 17 18  1  0
 17 19  1  0
 17 20  1  0
M  CHG  1   8   1
M  END
>  <PDB_ID>  (800) 
pdb1y3n

>  <RESIDUE_NAME>  (800) 
LYS   MET

>  <FRAG_NAME>  (800) 
ETAM   MSM

>  <FRAG_ATOM_NUM>  (800) 
fragi: 11  fragj: 9

>  <atom.prop.CHAIN_ID>  (800) 
A A A A A A A A A A A Z Z Z Z Z Z Z Z Z

>  <atom.prop.IS_HEAVY_ATOM>  (800) 
1 0 0 0 1 0 0 1 0 0 0 1 0 0 0 1 1 0 0 0

>  <DIFUSE_FUNC_ATOM>  (800) 
n/a

>  <FINAL_SINGLE_POINT_ENERGY>  (800) 
0

>  <NONCOV_INTER_ENERGY_QM>  (800) 
0

>  <FF_Energy>  (800) 
-5.76

>  <QM_Energy>  (800) 
-11.96

>  <source>  (800) 
ETAM_MSM

>  <Index>  (800) 
4894

$$$$
ETAM-pdb3c1b-A-LYS-464:MSM-pdb3c1b-A-MET-490
     RDKit          3D

 20 18  0  0  0  0  0  0  0  0999 V2000
    1.2467    0.8715   -0.0000 C   0  0  0  0  0  0  0  0  0  0  0  0
    1.0549    1.6971    0.5135 H   0  0  0  0  0  0  0  0  0  0  0  0
    1.4831    1.0845   -0.9386 H   0  0  0  0  0  0  0  0  0  0  0  0
    2.0793    0.3462    0.4679 H   0  0  0  0  0  0  0  0  0  0  0  0
    0.0000    0.0000    0.0000 C   0  0  0  0  0  0  0  0  0  0  0  0
    0.0104   -0.5836   -0.8160 H   0  0  0  0  0  0  0  0  0  0  0  0
    0.0098   -0.5836    0.8166 H   0  0  0  0  0  0  0  0  0  0  0  0
   -1.2467    0.8171    0.0000 N   0  0  0  0  0  4  0  0  0  0  0  0
   -1.9835    0.2953   -0.4286 H   0  0  0  0  0  0  0  0  0  0  0  0
   -1.4958    1.0400    0.9415 H   0  0  0  0  0  0  0  0  0  0  0  0
   -1.0900    1.6595   -0.5136 H   0  0  0  0  0  0  0  0  0  0  0  0
   -2.4111    4.6326   -2.3786 C   0  0  0  0  0  0  0  0  0  0  0  0
   -2.2116    5.4791   -1.8396 H   0  0  0  0  0  0  0  0  0  0  0  0
   -3.3189    4.2965   -2.0472 H   0  0  0  0  0  0  0  0  0  0  0  0
   -2.4986    4.9009   -3.4315 H   0  0  0  0  0  0  0  0  0  0  0  0
   -1.1310    3.3837   -2.0956 S   0  0  0  0  0  0  0  0  0  0  0  0
   -1.9924    1.9106   -2.6466 C   0  0  0  0  0  0  0  0  0  0  0  0
   -2.5426    1.5439   -1.8956 H   0  0  0  0  0  0  0  0  0  0  0  0
   -2.5900    2.1405   -3.4155 H   0  0  0  0  0  0  0  0  0  0  0  0
   -1.3270    1.2224   -2.9376 H   0  0  0  0  0  0  0  0  0  0  0  0
  1  5  1  0
  5  8  1  0
  1  2  1  0
  1  3  1  0
  1  4  1  0
  5  6  1  0
  5  7  1  0
  8  9  1  0
  8 10  1  0
  8 11  1  0
 12 16  1  0
 16 17  1  0
 12 13  1  0
 12 14  1  0
 12 15  1  0
 17 18  1  0
 17 19  1  0
 17 20  1  0
M  CHG  1   8   1
M  END
>  <PDB_ID>  (801) 
pdb3c1b

>  <RESIDUE_NAME>  (801) 
LYS   MET

>  <FRAG_NAME>  (801) 
ETAM   MSM

>  <FRAG_ATOM_NUM>  (801) 
fragi: 11  fragj: 9

>  <atom.prop.CHAIN_ID>  (801) 
A A A A A A A A A A A Z Z Z Z Z Z Z Z Z

>  <atom.prop.IS_HEAVY_ATOM>  (801) 
1 0 0 0 1 0 0 1 0 0 0 1 0 0 0 1 1 0 0 0

>  <DIFUSE_FUNC_ATOM>  (801) 
n/a

>  <FINAL_SINGLE_POINT_ENERGY>  (801) 
0

>  <NONCOV_INTER_ENERGY_QM>  (801) 
0

>  <FF_Energy>  (801) 
-0.58

>  <QM_Energy>  (801) 
-9.4

>  <source>  (801) 
ETAM_MSM

>  <Index>  (801) 
4896

$$$$
ETAM-pdb3c1b-E-LYS-664:MSM-pdb3c1b-E-MET-690
     RDKit          3D

 20 18  0  0  0  0  0  0  0  0999 V2000
    1.2363    0.8770    0.0000 C   0  0  0  0  0  0  0  0  0  0  0  0
    1.1438    1.5645   -0.7144 H   0  0  0  0  0  0  0  0  0  0  0  0
    2.0346    0.3074   -0.1709 H   0  0  0  0  0  0  0  0  0  0  0  0
    1.3705    1.3861    0.9544 H   0  0  0  0  0  0  0  0  0  0  0  0
    0.0000    0.0000    0.0000 C   0  0  0  0  0  0  0  0  0  0  0  0
    0.0100   -0.5783   -0.8158 H   0  0  0  0  0  0  0  0  0  0  0  0
    0.0091   -0.5783    0.8165 H   0  0  0  0  0  0  0  0  0  0  0  0
   -1.2363    0.8251    0.0000 N   0  0  0  0  0  4  0  0  0  0  0  0
   -1.2272    1.4383   -0.7901 H   0  0  0  0  0  0  0  0  0  0  0  0
   -2.0357    0.2269   -0.0511 H   0  0  0  0  0  0  0  0  0  0  0  0
   -1.2758    1.3646    0.8412 H   0  0  0  0  0  0  0  0  0  0  0  0
   -4.7052    2.7990    2.0051 C   0  0  0  0  0  0  0  0  0  0  0  0
   -4.8627    1.8141    2.2215 H   0  0  0  0  0  0  0  0  0  0  0  0
   -4.9702    2.9222    1.0273 H   0  0  0  0  0  0  0  0  0  0  0  0
   -5.3627    3.4054    2.6280 H   0  0  0  0  0  0  0  0  0  0  0  0
   -2.9218    3.2150    2.2299 S   0  0  0  0  0  0  0  0  0  0  0  0
   -2.8932    4.8271    1.4476 C   0  0  0  0  0  0  0  0  0  0  0  0
   -1.9575    5.1818    1.4438 H   0  0  0  0  0  0  0  0  0  0  0  0
   -3.2220    4.7483    0.5055 H   0  0  0  0  0  0  0  0  0  0  0  0
   -3.4843    5.4564    1.9541 H   0  0  0  0  0  0  0  0  0  0  0  0
  1  5  1  0
  5  8  1  0
  1  2  1  0
  1  3  1  0
  1  4  1  0
  5  6  1  0
  5  7  1  0
  8  9  1  0
  8 10  1  0
  8 11  1  0
 12 16  1  0
 16 17  1  0
 12 13  1  0
 12 14  1  0
 12 15  1  0
 17 18  1  0
 17 19  1  0
 17 20  1  0
M  CHG  1   8   1
M  END
>  <PDB_ID>  (802) 
pdb3c1b

>  <RESIDUE_NAME>  (802) 
LYS   MET

>  <FRAG_NAME>  (802) 
ETAM   MSM

>  <FRAG_ATOM_NUM>  (802) 
fragi: 11  fragj: 9

>  <atom.prop.CHAIN_ID>  (802) 
A A A A A A A A A A A Z Z Z Z Z Z Z Z Z

>  <atom.prop.IS_HEAVY_ATOM>  (802) 
1 0 0 0 1 0 0 1 0 0 0 1 0 0 0 1 1 0 0 0

>  <DIFUSE_FUNC_ATOM>  (802) 
n/a

>  <FINAL_SINGLE_POINT_ENERGY>  (802) 
0

>  <NONCOV_INTER_ENERGY_QM>  (802) 
0

>  <FF_Energy>  (802) 
-4.42

>  <QM_Energy>  (802) 
-12.4

>  <source>  (802) 
ETAM_MSM

>  <Index>  (802) 
4897

$$$$
ETAM-pdb3c3k-B-LYS-32:MSM-pdb3c3k-B-MET-244
     RDKit          3D

 20 18  0  0  0  0  0  0  0  0999 V2000
    1.2518    0.9077   -0.0000 C   0  0  0  0  0  0  0  0  0  0  0  0
    1.1168    1.6062    0.6698 H   0  0  0  0  0  0  0  0  0  0  0  0
    1.3701    1.2558   -0.9049 H   0  0  0  0  0  0  0  0  0  0  0  0
    2.1036    0.2863    0.2764 H   0  0  0  0  0  0  0  0  0  0  0  0
    0.0000    0.0000    0.0000 C   0  0  0  0  0  0  0  0  0  0  0  0
    0.0257   -0.5710   -0.8158 H   0  0  0  0  0  0  0  0  0  0  0  0
    0.0254   -0.5713    0.8162 H   0  0  0  0  0  0  0  0  0  0  0  0
   -1.2518    0.8154    0.0000 N   0  0  0  0  0  4  0  0  0  0  0  0
   -1.1771    1.5326    0.6905 H   0  0  0  0  0  0  0  0  0  0  0  0
   -1.3757    1.2264   -0.9016 H   0  0  0  0  0  0  0  0  0  0  0  0
   -2.0287    0.2245    0.2108 H   0  0  0  0  0  0  0  0  0  0  0  0
    0.0708   -0.9751   -4.6876 C   0  0  0  0  0  0  0  0  0  0  0  0
    0.7966   -1.3729   -4.0664 H   0  0  0  0  0  0  0  0  0  0  0  0
    0.4855   -0.0901   -5.0270 H   0  0  0  0  0  0  0  0  0  0  0  0
   -0.0683   -1.6451   -5.5359 H   0  0  0  0  0  0  0  0  0  0  0  0
   -1.4499   -0.6081   -3.7066 S   0  0  0  0  0  0  0  0  0  0  0  0
   -2.3926    0.0129   -4.9392 C   0  0  0  0  0  0  0  0  0  0  0  0
   -2.3328   -0.5383   -5.7989 H   0  0  0  0  0  0  0  0  0  0  0  0
   -3.3857    0.0515   -4.6973 H   0  0  0  0  0  0  0  0  0  0  0  0
   -2.1282    0.9661   -5.1972 H   0  0  0  0  0  0  0  0  0  0  0  0
  1  5  1  0
  5  8  1  0
  1  2  1  0
  1  3  1  0
  1  4  1  0
  5  6  1  0
  5  7  1  0
  8  9  1  0
  8 10  1  0
  8 11  1  0
 12 16  1  0
 16 17  1  0
 12 13  1  0
 12 14  1  0
 12 15  1  0
 17 18  1  0
 17 19  1  0
 17 20  1  0
M  CHG  1   8   1
M  END
>  <PDB_ID>  (803) 
pdb3c3k

>  <RESIDUE_NAME>  (803) 
LYS   MET

>  <FRAG_NAME>  (803) 
ETAM   MSM

>  <FRAG_ATOM_NUM>  (803) 
fragi: 11  fragj: 9

>  <atom.prop.CHAIN_ID>  (803) 
A A A A A A A A A A A Z Z Z Z Z Z Z Z Z

>  <atom.prop.IS_HEAVY_ATOM>  (803) 
1 0 0 0 1 0 0 1 0 0 0 1 0 0 0 1 1 0 0 0

>  <DIFUSE_FUNC_ATOM>  (803) 
n/a

>  <FINAL_SINGLE_POINT_ENERGY>  (803) 
0

>  <NONCOV_INTER_ENERGY_QM>  (803) 
0

>  <FF_Energy>  (803) 
-4.85

>  <QM_Energy>  (803) 
-10.53

>  <source>  (803) 
ETAM_MSM

>  <Index>  (803) 
4915

$$$$
ETAM-pdb3c6a-A-LYS-493:MSM-pdb3c6a-A-MET-542
     RDKit          3D

 20 18  0  0  0  0  0  0  0  0999 V2000
    1.2721    0.8213    0.0000 C   0  0  0  0  0  0  0  0  0  0  0  0
    1.2708    1.4137    0.8038 H   0  0  0  0  0  0  0  0  0  0  0  0
    1.2948    1.3755   -0.8286 H   0  0  0  0  0  0  0  0  0  0  0  0
    2.1640    0.1953    0.0283 H   0  0  0  0  0  0  0  0  0  0  0  0
    0.0000    0.0000    0.0000 C   0  0  0  0  0  0  0  0  0  0  0  0
    0.0159   -0.6218   -0.8161 H   0  0  0  0  0  0  0  0  0  0  0  0
    0.0160   -0.6221    0.8160 H   0  0  0  0  0  0  0  0  0  0  0  0
   -1.2721    0.7514   -0.0000 N   0  0  0  0  0  4  0  0  0  0  0  0
   -1.3537    1.2756   -0.8492 H   0  0  0  0  0  0  0  0  0  0  0  0
   -2.0402    0.1132    0.0690 H   0  0  0  0  0  0  0  0  0  0  0  0
   -1.2926    1.3799    0.7795 H   0  0  0  0  0  0  0  0  0  0  0  0
   -1.4366   -1.1921    4.9275 C   0  0  0  0  0  0  0  0  0  0  0  0
   -2.2744   -1.8017    4.9408 H   0  0  0  0  0  0  0  0  0  0  0  0
   -1.8213   -0.2358    5.0366 H   0  0  0  0  0  0  0  0  0  0  0  0
   -0.8532   -1.4161    5.8205 H   0  0  0  0  0  0  0  0  0  0  0  0
   -0.5476   -1.3540    3.3700 S   0  0  0  0  0  0  0  0  0  0  0  0
    0.9758   -0.5175    3.5856 C   0  0  0  0  0  0  0  0  0  0  0  0
    1.5276   -0.5614    2.7438 H   0  0  0  0  0  0  0  0  0  0  0  0
    0.8199    0.4526    3.8104 H   0  0  0  0  0  0  0  0  0  0  0  0
    1.5074   -0.9337    4.3341 H   0  0  0  0  0  0  0  0  0  0  0  0
  1  5  1  0
  5  8  1  0
  1  2  1  0
  1  3  1  0
  1  4  1  0
  5  6  1  0
  5  7  1  0
  8  9  1  0
  8 10  1  0
  8 11  1  0
 12 16  1  0
 16 17  1  0
 12 13  1  0
 12 14  1  0
 12 15  1  0
 17 18  1  0
 17 19  1  0
 17 20  1  0
M  CHG  1   8   1
M  END
>  <PDB_ID>  (804) 
pdb3c6a

>  <RESIDUE_NAME>  (804) 
LYS   MET

>  <FRAG_NAME>  (804) 
ETAM   MSM

>  <FRAG_ATOM_NUM>  (804) 
fragi: 11  fragj: 9

>  <atom.prop.CHAIN_ID>  (804) 
A A A A A A A A A A A Z Z Z Z Z Z Z Z Z

>  <atom.prop.IS_HEAVY_ATOM>  (804) 
1 0 0 0 1 0 0 1 0 0 0 1 0 0 0 1 1 0 0 0

>  <DIFUSE_FUNC_ATOM>  (804) 
n/a

>  <FINAL_SINGLE_POINT_ENERGY>  (804) 
0

>  <NONCOV_INTER_ENERGY_QM>  (804) 
0

>  <FF_Energy>  (804) 
-3.52

>  <QM_Energy>  (804) 
-8.63

>  <source>  (804) 
ETAM_MSM

>  <Index>  (804) 
4958

$$$$
ETAM-pdb1ycs-B-LYS-454:MSM-pdb1ycs-B-MET-458
     RDKit          3D

 20 18  0  0  0  0  0  0  0  0999 V2000
    1.2750    0.8634    0.0000 C   0  0  0  0  0  0  0  0  0  0  0  0
    1.3611    1.2939    0.8906 H   0  0  0  0  0  0  0  0  0  0  0  0
    1.1885    1.5476   -0.7136 H   0  0  0  0  0  0  0  0  0  0  0  0
    2.1683    0.2684   -0.1899 H   0  0  0  0  0  0  0  0  0  0  0  0
    0.0000    0.0000    0.0000 C   0  0  0  0  0  0  0  0  0  0  0  0
    0.0215   -0.5977   -0.8162 H   0  0  0  0  0  0  0  0  0  0  0  0
    0.0211   -0.5983    0.8163 H   0  0  0  0  0  0  0  0  0  0  0  0
   -1.2750    0.7802    0.0000 N   0  0  0  0  0  4  0  0  0  0  0  0
   -1.2631    1.4296    0.7588 H   0  0  0  0  0  0  0  0  0  0  0  0
   -1.3585    1.2725   -0.8646 H   0  0  0  0  0  0  0  0  0  0  0  0
   -2.0441    0.1528    0.1064 H   0  0  0  0  0  0  0  0  0  0  0  0
    1.4307   -1.8075    4.4821 C   0  0  0  0  0  0  0  0  0  0  0  0
    2.0447   -2.4874    4.0466 H   0  0  0  0  0  0  0  0  0  0  0  0
    1.0411   -2.2452    5.3108 H   0  0  0  0  0  0  0  0  0  0  0  0
    2.0172   -0.9386    4.7807 H   0  0  0  0  0  0  0  0  0  0  0  0
    0.1133   -1.3181    3.3417 S   0  0  0  0  0  0  0  0  0  0  0  0
    0.1579   -2.6557    2.1872 C   0  0  0  0  0  0  0  0  0  0  0  0
    1.0376   -3.1386    2.2481 H   0  0  0  0  0  0  0  0  0  0  0  0
   -0.5823   -3.3075    2.3815 H   0  0  0  0  0  0  0  0  0  0  0  0
    0.0449   -2.3095    1.2506 H   0  0  0  0  0  0  0  0  0  0  0  0
  1  5  1  0
  5  8  1  0
  1  2  1  0
  1  3  1  0
  1  4  1  0
  5  6  1  0
  5  7  1  0
  8  9  1  0
  8 10  1  0
  8 11  1  0
 12 16  1  0
 16 17  1  0
 12 13  1  0
 12 14  1  0
 12 15  1  0
 17 18  1  0
 17 19  1  0
 17 20  1  0
M  CHG  1   8   1
M  END
>  <PDB_ID>  (805) 
pdb1ycs

>  <RESIDUE_NAME>  (805) 
LYS   MET

>  <FRAG_NAME>  (805) 
ETAM   MSM

>  <FRAG_ATOM_NUM>  (805) 
fragi: 11  fragj: 9

>  <atom.prop.CHAIN_ID>  (805) 
A A A A A A A A A A A Z Z Z Z Z Z Z Z Z

>  <atom.prop.IS_HEAVY_ATOM>  (805) 
1 0 0 0 1 0 0 1 0 0 0 1 0 0 0 1 1 0 0 0

>  <DIFUSE_FUNC_ATOM>  (805) 
n/a

>  <FINAL_SINGLE_POINT_ENERGY>  (805) 
0

>  <NONCOV_INTER_ENERGY_QM>  (805) 
0

>  <FF_Energy>  (805) 
3.1

>  <QM_Energy>  (805) 
-5.41

>  <source>  (805) 
ETAM_MSM

>  <Index>  (805) 
4959

$$$$
ETAM-pdb1yf2-A-LYS-199:MSM-pdb1yf2-A-MET-203
     RDKit          3D

 20 18  0  0  0  0  0  0  0  0999 V2000
    1.3163    0.7939    0.0000 C   0  0  0  0  0  0  0  0  0  0  0  0
    2.0620    0.1583   -0.1836 H   0  0  0  0  0  0  0  0  0  0  0  0
    1.4308    1.2036    0.9006 H   0  0  0  0  0  0  0  0  0  0  0  0
    1.3253    1.5809   -0.7541 H   0  0  0  0  0  0  0  0  0  0  0  0
    0.0000    0.0000    0.0000 C   0  0  0  0  0  0  0  0  0  0  0  0
    0.0038   -0.6292   -0.8158 H   0  0  0  0  0  0  0  0  0  0  0  0
    0.0028   -0.6298    0.8162 H   0  0  0  0  0  0  0  0  0  0  0  0
   -1.3163    0.7550    0.0000 N   0  0  0  0  0  4  0  0  0  0  0  0
   -1.1309    1.7162   -0.1776 H   0  0  0  0  0  0  0  0  0  0  0  0
   -1.8982    0.3781   -0.7132 H   0  0  0  0  0  0  0  0  0  0  0  0
   -1.7452    0.6445    0.8905 H   0  0  0  0  0  0  0  0  0  0  0  0
   -2.6028   -0.8427   -4.7596 C   0  0  0  0  0  0  0  0  0  0  0  0
   -3.0970    0.0326   -4.9639 H   0  0  0  0  0  0  0  0  0  0  0  0
   -3.1355   -1.5751   -5.2421 H   0  0  0  0  0  0  0  0  0  0  0  0
   -1.5937   -0.7955   -5.1690 H   0  0  0  0  0  0  0  0  0  0  0  0
   -2.5741   -1.1470   -3.0007 S   0  0  0  0  0  0  0  0  0  0  0  0
   -4.3113   -1.2131   -2.7039 C   0  0  0  0  0  0  0  0  0  0  0  0
   -4.7190   -1.9953   -3.1872 H   0  0  0  0  0  0  0  0  0  0  0  0
   -4.4940   -1.3138   -1.7200 H   0  0  0  0  0  0  0  0  0  0  0  0
   -4.7536   -0.3698   -3.0276 H   0  0  0  0  0  0  0  0  0  0  0  0
  1  5  1  0
  5  8  1  0
  1  2  1  0
  1  3  1  0
  1  4  1  0
  5  6  1  0
  5  7  1  0
  8  9  1  0
  8 10  1  0
  8 11  1  0
 12 16  1  0
 16 17  1  0
 12 13  1  0
 12 14  1  0
 12 15  1  0
 17 18  1  0
 17 19  1  0
 17 20  1  0
M  CHG  1   8   1
M  END
>  <PDB_ID>  (806) 
pdb1yf2

>  <RESIDUE_NAME>  (806) 
LYS   MET

>  <FRAG_NAME>  (806) 
ETAM   MSM

>  <FRAG_ATOM_NUM>  (806) 
fragi: 11  fragj: 9

>  <atom.prop.CHAIN_ID>  (806) 
A A A A A A A A A A A Z Z Z Z Z Z Z Z Z

>  <atom.prop.IS_HEAVY_ATOM>  (806) 
1 0 0 0 1 0 0 1 0 0 0 1 0 0 0 1 1 0 0 0

>  <DIFUSE_FUNC_ATOM>  (806) 
n/a

>  <FINAL_SINGLE_POINT_ENERGY>  (806) 
0

>  <NONCOV_INTER_ENERGY_QM>  (806) 
0

>  <FF_Energy>  (806) 
-4.99

>  <QM_Energy>  (806) 
-12.77

>  <source>  (806) 
ETAM_MSM

>  <Index>  (806) 
4965

$$$$
ETAM-pdb3c8f-A-LYS-195:MSM-pdb3c8f-A-MET-244
     RDKit          3D

 20 18  0  0  0  0  0  0  0  0999 V2000
    1.2580    0.8693   -0.0000 C   0  0  0  0  0  0  0  0  0  0  0  0
    1.1279    1.6079   -0.6539 H   0  0  0  0  0  0  0  0  0  0  0  0
    2.0298    0.3025   -0.2685 H   0  0  0  0  0  0  0  0  0  0  0  0
    1.4526    1.2950    0.9844 H   0  0  0  0  0  0  0  0  0  0  0  0
    0.0000    0.0000    0.0000 C   0  0  0  0  0  0  0  0  0  0  0  0
    0.0145   -0.5876   -0.8166 H   0  0  0  0  0  0  0  0  0  0  0  0
    0.0137   -0.5878    0.8168 H   0  0  0  0  0  0  0  0  0  0  0  0
   -1.2580    0.8052   -0.0000 N   0  0  0  0  0  4  0  0  0  0  0  0
   -1.1793    1.5394   -0.6728 H   0  0  0  0  0  0  0  0  0  0  0  0
   -2.0270    0.2136   -0.2358 H   0  0  0  0  0  0  0  0  0  0  0  0
   -1.3995    1.1951    0.9091 H   0  0  0  0  0  0  0  0  0  0  0  0
    0.2079    3.2399   -3.1803 C   0  0  0  0  0  0  0  0  0  0  0  0
   -0.6668    3.6000   -3.5649 H   0  0  0  0  0  0  0  0  0  0  0  0
    0.9577    3.7344   -3.6672 H   0  0  0  0  0  0  0  0  0  0  0  0
    0.2531    3.4908   -2.1205 H   0  0  0  0  0  0  0  0  0  0  0  0
    0.3382    1.4565   -3.4568 S   0  0  0  0  0  0  0  0  0  0  0  0
    2.1119    1.2492   -3.3663 C   0  0  0  0  0  0  0  0  0  0  0  0
    2.5402    2.1157   -3.1028 H   0  0  0  0  0  0  0  0  0  0  0  0
    2.3355    0.5499   -2.6842 H   0  0  0  0  0  0  0  0  0  0  0  0
    2.4645    0.9645   -4.2596 H   0  0  0  0  0  0  0  0  0  0  0  0
  1  5  1  0
  5  8  1  0
  1  2  1  0
  1  3  1  0
  1  4  1  0
  5  6  1  0
  5  7  1  0
  8  9  1  0
  8 10  1  0
  8 11  1  0
 12 16  1  0
 16 17  1  0
 12 13  1  0
 12 14  1  0
 12 15  1  0
 17 18  1  0
 17 19  1  0
 17 20  1  0
M  CHG  1   8   1
M  END
>  <PDB_ID>  (807) 
pdb3c8f

>  <RESIDUE_NAME>  (807) 
LYS   MET

>  <FRAG_NAME>  (807) 
ETAM   MSM

>  <FRAG_ATOM_NUM>  (807) 
fragi: 11  fragj: 9

>  <atom.prop.CHAIN_ID>  (807) 
A A A A A A A A A A A Z Z Z Z Z Z Z Z Z

>  <atom.prop.IS_HEAVY_ATOM>  (807) 
1 0 0 0 1 0 0 1 0 0 0 1 0 0 0 1 1 0 0 0

>  <DIFUSE_FUNC_ATOM>  (807) 
n/a

>  <FINAL_SINGLE_POINT_ENERGY>  (807) 
0

>  <NONCOV_INTER_ENERGY_QM>  (807) 
0

>  <FF_Energy>  (807) 
-4.05

>  <QM_Energy>  (807) 
-10.39

>  <source>  (807) 
ETAM_MSM

>  <Index>  (807) 
4967

$$$$
ETAM-pdb1ykf-A-LYS-346:MSM-pdb1ykf-A-MET-151
     RDKit          3D

 20 18  0  0  0  0  0  0  0  0999 V2000
    1.2446    0.8816    0.0000 C   0  0  0  0  0  0  0  0  0  0  0  0
    1.2719    1.3874    0.8542 H   0  0  0  0  0  0  0  0  0  0  0  0
    1.1913    1.5005   -0.7734 H   0  0  0  0  0  0  0  0  0  0  0  0
    2.1487    0.2788   -0.0859 H   0  0  0  0  0  0  0  0  0  0  0  0
    0.0000    0.0000    0.0000 C   0  0  0  0  0  0  0  0  0  0  0  0
    0.0170   -0.5813   -0.8160 H   0  0  0  0  0  0  0  0  0  0  0  0
    0.0162   -0.5817    0.8166 H   0  0  0  0  0  0  0  0  0  0  0  0
   -1.2446    0.8127    0.0000 N   0  0  0  0  0  4  0  0  0  0  0  0
   -2.0296    0.2183   -0.1734 H   0  0  0  0  0  0  0  0  0  0  0  0
   -1.3523    1.2564    0.8899 H   0  0  0  0  0  0  0  0  0  0  0  0
   -1.1873    1.5081   -0.7161 H   0  0  0  0  0  0  0  0  0  0  0  0
   -0.8954   -0.0038   -3.7392 C   0  0  0  0  0  0  0  0  0  0  0  0
   -1.5805   -0.6923   -3.3856 H   0  0  0  0  0  0  0  0  0  0  0  0
    0.0064   -0.3106   -3.3380 H   0  0  0  0  0  0  0  0  0  0  0  0
   -0.8382   -0.1098   -4.8226 H   0  0  0  0  0  0  0  0  0  0  0  0
   -1.3117    1.6577   -3.1741 S   0  0  0  0  0  0  0  0  0  0  0  0
   -3.0645    1.6405   -3.2622 C   0  0  0  0  0  0  0  0  0  0  0  0
   -3.3973    2.3943   -3.8422 H   0  0  0  0  0  0  0  0  0  0  0  0
   -3.3910    0.7718   -3.6533 H   0  0  0  0  0  0  0  0  0  0  0  0
   -3.4654    1.7452   -2.3442 H   0  0  0  0  0  0  0  0  0  0  0  0
  1  5  1  0
  5  8  1  0
  1  2  1  0
  1  3  1  0
  1  4  1  0
  5  6  1  0
  5  7  1  0
  8  9  1  0
  8 10  1  0
  8 11  1  0
 12 16  1  0
 16 17  1  0
 12 13  1  0
 12 14  1  0
 12 15  1  0
 17 18  1  0
 17 19  1  0
 17 20  1  0
M  CHG  1   8   1
M  END
>  <PDB_ID>  (808) 
pdb1ykf

>  <RESIDUE_NAME>  (808) 
LYS   MET

>  <FRAG_NAME>  (808) 
ETAM   MSM

>  <FRAG_ATOM_NUM>  (808) 
fragi: 11  fragj: 9

>  <atom.prop.CHAIN_ID>  (808) 
A A A A A A A A A A A Z Z Z Z Z Z Z Z Z

>  <atom.prop.IS_HEAVY_ATOM>  (808) 
1 0 0 0 1 0 0 1 0 0 0 1 0 0 0 1 1 0 0 0

>  <DIFUSE_FUNC_ATOM>  (808) 
n/a

>  <FINAL_SINGLE_POINT_ENERGY>  (808) 
0

>  <NONCOV_INTER_ENERGY_QM>  (808) 
0

>  <FF_Energy>  (808) 
-4.83

>  <QM_Energy>  (808) 
-14.19

>  <source>  (808) 
ETAM_MSM

>  <Index>  (808) 
4982

$$$$
ETAM-pdb1ykf-B-LYS-346:MSM-pdb1ykf-B-MET-151
     RDKit          3D

 20 18  0  0  0  0  0  0  0  0999 V2000
    1.2431    0.8763    0.0000 C   0  0  0  0  0  0  0  0  0  0  0  0
    1.2728    1.3835    0.8536 H   0  0  0  0  0  0  0  0  0  0  0  0
    1.1938    1.4961   -0.7738 H   0  0  0  0  0  0  0  0  0  0  0  0
    2.1474    0.2737   -0.0851 H   0  0  0  0  0  0  0  0  0  0  0  0
    0.0000    0.0000    0.0000 C   0  0  0  0  0  0  0  0  0  0  0  0
    0.0125   -0.5813   -0.8167 H   0  0  0  0  0  0  0  0  0  0  0  0
    0.0114   -0.5816    0.8164 H   0  0  0  0  0  0  0  0  0  0  0  0
   -1.2431    0.8181    0.0000 N   0  0  0  0  0  4  0  0  0  0  0  0
   -1.8979    0.4267    0.6466 H   0  0  0  0  0  0  0  0  0  0  0  0
   -1.0240    1.7552    0.2713 H   0  0  0  0  0  0  0  0  0  0  0  0
   -1.6393    0.8198   -0.9177 H   0  0  0  0  0  0  0  0  0  0  0  0
   -0.6460    0.0335   -3.7970 C   0  0  0  0  0  0  0  0  0  0  0  0
   -1.2871   -0.6249   -3.3310 H   0  0  0  0  0  0  0  0  0  0  0  0
    0.2932   -0.2413   -3.4720 H   0  0  0  0  0  0  0  0  0  0  0  0
   -0.7001   -0.1429   -4.8712 H   0  0  0  0  0  0  0  0  0  0  0  0
   -1.0142    1.7221   -3.3350 S   0  0  0  0  0  0  0  0  0  0  0  0
   -2.7481    1.5998   -2.9896 C   0  0  0  0  0  0  0  0  0  0  0  0
   -3.1305    0.7817   -3.4287 H   0  0  0  0  0  0  0  0  0  0  0  0
   -2.8996    1.5372   -1.9985 H   0  0  0  0  0  0  0  0  0  0  0  0
   -3.2284    2.4097   -3.3401 H   0  0  0  0  0  0  0  0  0  0  0  0
  1  5  1  0
  5  8  1  0
  1  2  1  0
  1  3  1  0
  1  4  1  0
  5  6  1  0
  5  7  1  0
  8  9  1  0
  8 10  1  0
  8 11  1  0
 12 16  1  0
 16 17  1  0
 12 13  1  0
 12 14  1  0
 12 15  1  0
 17 18  1  0
 17 19  1  0
 17 20  1  0
M  CHG  1   8   1
M  END
>  <PDB_ID>  (809) 
pdb1ykf

>  <RESIDUE_NAME>  (809) 
LYS   MET

>  <FRAG_NAME>  (809) 
ETAM   MSM

>  <FRAG_ATOM_NUM>  (809) 
fragi: 11  fragj: 9

>  <atom.prop.CHAIN_ID>  (809) 
A A A A A A A A A A A Z Z Z Z Z Z Z Z Z

>  <atom.prop.IS_HEAVY_ATOM>  (809) 
1 0 0 0 1 0 0 1 0 0 0 1 0 0 0 1 1 0 0 0

>  <DIFUSE_FUNC_ATOM>  (809) 
n/a

>  <FINAL_SINGLE_POINT_ENERGY>  (809) 
0

>  <NONCOV_INTER_ENERGY_QM>  (809) 
0

>  <FF_Energy>  (809) 
-3.31

>  <QM_Energy>  (809) 
-9.28

>  <source>  (809) 
ETAM_MSM

>  <Index>  (809) 
4984

$$$$
ETAM-pdb1ykf-C-LYS-346:MSM-pdb1ykf-C-MET-151
     RDKit          3D

 20 18  0  0  0  0  0  0  0  0999 V2000
    1.2423    0.8743    0.0000 C   0  0  0  0  0  0  0  0  0  0  0  0
    1.2758    1.3803    0.8531 H   0  0  0  0  0  0  0  0  0  0  0  0
    1.1974    1.4920   -0.7753 H   0  0  0  0  0  0  0  0  0  0  0  0
    2.1439    0.2677   -0.0841 H   0  0  0  0  0  0  0  0  0  0  0  0
    0.0000    0.0000    0.0000 C   0  0  0  0  0  0  0  0  0  0  0  0
    0.0176   -0.5865   -0.8158 H   0  0  0  0  0  0  0  0  0  0  0  0
    0.0168   -0.5871    0.8164 H   0  0  0  0  0  0  0  0  0  0  0  0
   -1.2423    0.8032   -0.0000 N   0  0  0  0  0  4  0  0  0  0  0  0
   -2.0347    0.1966   -0.0806 H   0  0  0  0  0  0  0  0  0  0  0  0
   -1.3074    1.3215    0.8541 H   0  0  0  0  0  0  0  0  0  0  0  0
   -1.2318    1.4391   -0.7732 H   0  0  0  0  0  0  0  0  0  0  0  0
   -0.9622   -0.2443   -3.8609 C   0  0  0  0  0  0  0  0  0  0  0  0
   -1.5536   -0.9534   -3.3910 H   0  0  0  0  0  0  0  0  0  0  0  0
   -0.0082   -0.4399   -3.5071 H   0  0  0  0  0  0  0  0  0  0  0  0
   -0.9745   -0.4507   -4.9311 H   0  0  0  0  0  0  0  0  0  0  0  0
   -1.4780    1.4071   -3.4281 S   0  0  0  0  0  0  0  0  0  0  0  0
   -3.0372    1.1303   -2.6982 C   0  0  0  0  0  0  0  0  0  0  0  0
   -3.6740    1.8818   -2.9160 H   0  0  0  0  0  0  0  0  0  0  0  0
   -3.4429    0.2690   -3.0330 H   0  0  0  0  0  0  0  0  0  0  0  0
   -2.9583    1.0685   -1.6942 H   0  0  0  0  0  0  0  0  0  0  0  0
  1  5  1  0
  5  8  1  0
  1  2  1  0
  1  3  1  0
  1  4  1  0
  5  6  1  0
  5  7  1  0
  8  9  1  0
  8 10  1  0
  8 11  1  0
 12 16  1  0
 16 17  1  0
 12 13  1  0
 12 14  1  0
 12 15  1  0
 17 18  1  0
 17 19  1  0
 17 20  1  0
M  CHG  1   8   1
M  END
>  <PDB_ID>  (810) 
pdb1ykf

>  <RESIDUE_NAME>  (810) 
LYS   MET

>  <FRAG_NAME>  (810) 
ETAM   MSM

>  <FRAG_ATOM_NUM>  (810) 
fragi: 11  fragj: 9

>  <atom.prop.CHAIN_ID>  (810) 
A A A A A A A A A A A Z Z Z Z Z Z Z Z Z

>  <atom.prop.IS_HEAVY_ATOM>  (810) 
1 0 0 0 1 0 0 1 0 0 0 1 0 0 0 1 1 0 0 0

>  <DIFUSE_FUNC_ATOM>  (810) 
n/a

>  <FINAL_SINGLE_POINT_ENERGY>  (810) 
0

>  <NONCOV_INTER_ENERGY_QM>  (810) 
0

>  <FF_Energy>  (810) 
-1.48

>  <QM_Energy>  (810) 
-8.74

>  <source>  (810) 
ETAM_MSM

>  <Index>  (810) 
4986

$$$$
ETAM-pdb1ykf-D-LYS-346:MSM-pdb1ykf-D-MET-151
     RDKit          3D

 20 18  0  0  0  0  0  0  0  0999 V2000
    1.2466    0.8733   -0.0000 C   0  0  0  0  0  0  0  0  0  0  0  0
    1.2743    1.3841    0.8497 H   0  0  0  0  0  0  0  0  0  0  0  0
    1.2035    1.4851   -0.7793 H   0  0  0  0  0  0  0  0  0  0  0  0
    2.1455    0.2616   -0.0761 H   0  0  0  0  0  0  0  0  0  0  0  0
    0.0000    0.0000    0.0000 C   0  0  0  0  0  0  0  0  0  0  0  0
    0.0141   -0.5844   -0.8166 H   0  0  0  0  0  0  0  0  0  0  0  0
    0.0136   -0.5844    0.8163 H   0  0  0  0  0  0  0  0  0  0  0  0
   -1.2466    0.8108   -0.0000 N   0  0  0  0  0  4  0  0  0  0  0  0
   -1.9591    0.3242    0.5045 H   0  0  0  0  0  0  0  0  0  0  0  0
   -1.0697    1.6922    0.4377 H   0  0  0  0  0  0  0  0  0  0  0  0
   -1.5460    0.9596   -0.9419 H   0  0  0  0  0  0  0  0  0  0  0  0
   -0.7457   -0.4616   -3.7848 C   0  0  0  0  0  0  0  0  0  0  0  0
   -1.4351   -1.0721   -3.3189 H   0  0  0  0  0  0  0  0  0  0  0  0
    0.1673   -0.7764   -3.4230 H   0  0  0  0  0  0  0  0  0  0  0  0
   -0.7777   -0.6690   -4.8544 H   0  0  0  0  0  0  0  0  0  0  0  0
   -1.0363    1.2609   -3.3767 S   0  0  0  0  0  0  0  0  0  0  0  0
   -2.7675    1.2739   -3.2368 C   0  0  0  0  0  0  0  0  0  0  0  0
   -3.1434    2.1818   -3.4710 H   0  0  0  0  0  0  0  0  0  0  0  0
   -3.1870    0.5962   -3.8577 H   0  0  0  0  0  0  0  0  0  0  0  0
   -3.0575    1.0520   -2.2947 H   0  0  0  0  0  0  0  0  0  0  0  0
  1  5  1  0
  5  8  1  0
  1  2  1  0
  1  3  1  0
  1  4  1  0
  5  6  1  0
  5  7  1  0
  8  9  1  0
  8 10  1  0
  8 11  1  0
 12 16  1  0
 16 17  1  0
 12 13  1  0
 12 14  1  0
 12 15  1  0
 17 18  1  0
 17 19  1  0
 17 20  1  0
M  CHG  1   8   1
M  END
>  <PDB_ID>  (811) 
pdb1ykf

>  <RESIDUE_NAME>  (811) 
LYS   MET

>  <FRAG_NAME>  (811) 
ETAM   MSM

>  <FRAG_ATOM_NUM>  (811) 
fragi: 11  fragj: 9

>  <atom.prop.CHAIN_ID>  (811) 
A A A A A A A A A A A Z Z Z Z Z Z Z Z Z

>  <atom.prop.IS_HEAVY_ATOM>  (811) 
1 0 0 0 1 0 0 1 0 0 0 1 0 0 0 1 1 0 0 0

>  <DIFUSE_FUNC_ATOM>  (811) 
n/a

>  <FINAL_SINGLE_POINT_ENERGY>  (811) 
0

>  <NONCOV_INTER_ENERGY_QM>  (811) 
0

>  <FF_Energy>  (811) 
-4.43

>  <QM_Energy>  (811) 
-12.43

>  <source>  (811) 
ETAM_MSM

>  <Index>  (811) 
4988

$$$$
ETAM-pdb3cc9-D-LYS-43:MSM-pdb3cc9-D-MET-40
     RDKit          3D

 20 18  0  0  0  0  0  0  0  0999 V2000
    1.2458    0.8682    0.0000 C   0  0  0  0  0  0  0  0  0  0  0  0
    1.2872    1.3708   -0.8625 H   0  0  0  0  0  0  0  0  0  0  0  0
    2.0473    0.2787    0.0848 H   0  0  0  0  0  0  0  0  0  0  0  0
    1.2576    1.5876    0.8187 H   0  0  0  0  0  0  0  0  0  0  0  0
    0.0000    0.0000    0.0000 C   0  0  0  0  0  0  0  0  0  0  0  0
    0.0171   -0.5904   -0.8162 H   0  0  0  0  0  0  0  0  0  0  0  0
    0.0167   -0.5906    0.8161 H   0  0  0  0  0  0  0  0  0  0  0  0
   -1.2458    0.7981   -0.0000 N   0  0  0  0  0  4  0  0  0  0  0  0
   -2.0367    0.1854   -0.0173 H   0  0  0  0  0  0  0  0  0  0  0  0
   -1.2828    1.3644    0.8248 H   0  0  0  0  0  0  0  0  0  0  0  0
   -1.2659    1.3887   -0.8084 H   0  0  0  0  0  0  0  0  0  0  0  0
   -3.9558   -2.0982    2.3351 C   0  0  0  0  0  0  0  0  0  0  0  0
   -4.0957   -2.9956    2.8084 H   0  0  0  0  0  0  0  0  0  0  0  0
   -4.8737   -1.8354    1.9629 H   0  0  0  0  0  0  0  0  0  0  0  0
   -3.6630   -1.3596    3.0813 H   0  0  0  0  0  0  0  0  0  0  0  0
   -2.7472   -2.2554    1.0062 S   0  0  0  0  0  0  0  0  0  0  0  0
   -3.6512   -3.2554   -0.1797 C   0  0  0  0  0  0  0  0  0  0  0  0
   -3.0345   -3.5415   -0.9136 H   0  0  0  0  0  0  0  0  0  0  0  0
   -4.0209   -4.0637    0.2794 H   0  0  0  0  0  0  0  0  0  0  0  0
   -4.4017   -2.7187   -0.5652 H   0  0  0  0  0  0  0  0  0  0  0  0
  1  5  1  0
  5  8  1  0
  1  2  1  0
  1  3  1  0
  1  4  1  0
  5  6  1  0
  5  7  1  0
  8  9  1  0
  8 10  1  0
  8 11  1  0
 12 16  1  0
 16 17  1  0
 12 13  1  0
 12 14  1  0
 12 15  1  0
 17 18  1  0
 17 19  1  0
 17 20  1  0
M  CHG  1   8   1
M  END
>  <PDB_ID>  (812) 
pdb3cc9

>  <RESIDUE_NAME>  (812) 
LYS   MET

>  <FRAG_NAME>  (812) 
ETAM   MSM

>  <FRAG_ATOM_NUM>  (812) 
fragi: 11  fragj: 9

>  <atom.prop.CHAIN_ID>  (812) 
A A A A A A A A A A A Z Z Z Z Z Z Z Z Z

>  <atom.prop.IS_HEAVY_ATOM>  (812) 
1 0 0 0 1 0 0 1 0 0 0 1 0 0 0 1 1 0 0 0

>  <DIFUSE_FUNC_ATOM>  (812) 
n/a

>  <FINAL_SINGLE_POINT_ENERGY>  (812) 
0

>  <NONCOV_INTER_ENERGY_QM>  (812) 
0

>  <FF_Energy>  (812) 
-5.48

>  <QM_Energy>  (812) 
-15.1

>  <source>  (812) 
ETAM_MSM

>  <Index>  (812) 
4989

$$$$
ETAM-pdb3cek-A-LYS-584:MSM-pdb3cek-A-MET-659
     RDKit          3D

 20 18  0  0  0  0  0  0  0  0999 V2000
    1.2842    0.8796   -0.0000 C   0  0  0  0  0  0  0  0  0  0  0  0
    2.0634    0.2698    0.0009 H   0  0  0  0  0  0  0  0  0  0  0  0
    1.2641    1.4367    0.8173 H   0  0  0  0  0  0  0  0  0  0  0  0
    1.3173    1.5186   -0.8824 H   0  0  0  0  0  0  0  0  0  0  0  0
    0.0000    0.0000    0.0000 C   0  0  0  0  0  0  0  0  0  0  0  0
    0.0331   -0.5976   -0.8162 H   0  0  0  0  0  0  0  0  0  0  0  0
    0.0326   -0.5975    0.8157 H   0  0  0  0  0  0  0  0  0  0  0  0
   -1.2842    0.7662   -0.0000 N   0  0  0  0  0  4  0  0  0  0  0  0
   -1.3452    1.3037   -0.8394 H   0  0  0  0  0  0  0  0  0  0  0  0
   -2.0486    0.1251    0.0473 H   0  0  0  0  0  0  0  0  0  0  0  0
   -1.3039    1.3740    0.7924 H   0  0  0  0  0  0  0  0  0  0  0  0
    1.6702   -1.7165    2.4632 C   0  0  0  0  0  0  0  0  0  0  0  0
    2.1839   -1.4837    1.6196 H   0  0  0  0  0  0  0  0  0  0  0  0
    0.8381   -2.2221    2.1767 H   0  0  0  0  0  0  0  0  0  0  0  0
    2.2827   -2.3372    3.1170 H   0  0  0  0  0  0  0  0  0  0  0  0
    1.2055   -0.2093    3.3398 S   0  0  0  0  0  0  0  0  0  0  0  0
    0.1875   -0.8364    4.6674 C   0  0  0  0  0  0  0  0  0  0  0  0
    0.1047   -1.8321    4.5885 H   0  0  0  0  0  0  0  0  0  0  0  0
    0.6046   -0.6090    5.5500 H   0  0  0  0  0  0  0  0  0  0  0  0
   -0.7244   -0.4249    4.6172 H   0  0  0  0  0  0  0  0  0  0  0  0
  1  5  1  0
  5  8  1  0
  1  2  1  0
  1  3  1  0
  1  4  1  0
  5  6  1  0
  5  7  1  0
  8  9  1  0
  8 10  1  0
  8 11  1  0
 12 16  1  0
 16 17  1  0
 12 13  1  0
 12 14  1  0
 12 15  1  0
 17 18  1  0
 17 19  1  0
 17 20  1  0
M  CHG  1   8   1
M  END
>  <PDB_ID>  (813) 
pdb3cek

>  <RESIDUE_NAME>  (813) 
LYS   MET

>  <FRAG_NAME>  (813) 
ETAM   MSM

>  <FRAG_ATOM_NUM>  (813) 
fragi: 11  fragj: 9

>  <atom.prop.CHAIN_ID>  (813) 
A A A A A A A A A A A Z Z Z Z Z Z Z Z Z

>  <atom.prop.IS_HEAVY_ATOM>  (813) 
1 0 0 0 1 0 0 1 0 0 0 1 0 0 0 1 1 0 0 0

>  <DIFUSE_FUNC_ATOM>  (813) 
n/a

>  <FINAL_SINGLE_POINT_ENERGY>  (813) 
0

>  <NONCOV_INTER_ENERGY_QM>  (813) 
0

>  <FF_Energy>  (813) 
-1.77

>  <QM_Energy>  (813) 
-7.66

>  <source>  (813) 
ETAM_MSM

>  <Index>  (813) 
4995

$$$$
ETAM-pdb1ypf-A-LYS-166:MSM-pdb1ypf-A-MET-228
     RDKit          3D

 20 18  0  0  0  0  0  0  0  0999 V2000
    1.2642    0.8809    0.0000 C   0  0  0  0  0  0  0  0  0  0  0  0
    1.3159    1.3476   -0.8854 H   0  0  0  0  0  0  0  0  0  0  0  0
    2.0599    0.2810    0.1020 H   0  0  0  0  0  0  0  0  0  0  0  0
    1.2828    1.6284    0.7931 H   0  0  0  0  0  0  0  0  0  0  0  0
    0.0000    0.0000    0.0000 C   0  0  0  0  0  0  0  0  0  0  0  0
    0.0414   -0.6022   -0.8158 H   0  0  0  0  0  0  0  0  0  0  0  0
    0.0410   -0.6032    0.8161 H   0  0  0  0  0  0  0  0  0  0  0  0
   -1.2642    0.7478    0.0000 N   0  0  0  0  0  4  0  0  0  0  0  0
   -1.2514    1.4393    0.7264 H   0  0  0  0  0  0  0  0  0  0  0  0
   -1.3913    1.2034   -0.8842 H   0  0  0  0  0  0  0  0  0  0  0  0
   -2.0313    0.1212    0.1587 H   0  0  0  0  0  0  0  0  0  0  0  0
    1.1069    1.5151   -4.9204 C   0  0  0  0  0  0  0  0  0  0  0  0
    0.6371    2.3106   -5.3690 H   0  0  0  0  0  0  0  0  0  0  0  0
    1.3916    0.8985   -5.6911 H   0  0  0  0  0  0  0  0  0  0  0  0
    2.0258    1.9069   -4.4843 H   0  0  0  0  0  0  0  0  0  0  0  0
    0.0438    0.6804   -3.7475 S   0  0  0  0  0  0  0  0  0  0  0  0
    0.9451   -0.8474   -3.5605 C   0  0  0  0  0  0  0  0  0  0  0  0
    1.8996   -0.6521   -3.3270 H   0  0  0  0  0  0  0  0  0  0  0  0
    0.5341   -1.3973   -2.8297 H   0  0  0  0  0  0  0  0  0  0  0  0
    0.9169   -1.3656   -4.4177 H   0  0  0  0  0  0  0  0  0  0  0  0
  1  5  1  0
  5  8  1  0
  1  2  1  0
  1  3  1  0
  1  4  1  0
  5  6  1  0
  5  7  1  0
  8  9  1  0
  8 10  1  0
  8 11  1  0
 12 16  1  0
 16 17  1  0
 12 13  1  0
 12 14  1  0
 12 15  1  0
 17 18  1  0
 17 19  1  0
 17 20  1  0
M  CHG  1   8   1
M  END
>  <PDB_ID>  (814) 
pdb1ypf

>  <RESIDUE_NAME>  (814) 
LYS   MET

>  <FRAG_NAME>  (814) 
ETAM   MSM

>  <FRAG_ATOM_NUM>  (814) 
fragi: 11  fragj: 9

>  <atom.prop.CHAIN_ID>  (814) 
A A A A A A A A A A A Z Z Z Z Z Z Z Z Z

>  <atom.prop.IS_HEAVY_ATOM>  (814) 
1 0 0 0 1 0 0 1 0 0 0 1 0 0 0 1 1 0 0 0

>  <DIFUSE_FUNC_ATOM>  (814) 
n/a

>  <FINAL_SINGLE_POINT_ENERGY>  (814) 
0

>  <NONCOV_INTER_ENERGY_QM>  (814) 
0

>  <FF_Energy>  (814) 
-4.72

>  <QM_Energy>  (814) 
-10.01

>  <source>  (814) 
ETAM_MSM

>  <Index>  (814) 
5008

$$$$
ETAM-pdb1yrz-A-LYS-1513:MSM-pdb1yrz-A-MET-1362
     RDKit          3D

 20 18  0  0  0  0  0  0  0  0999 V2000
    1.2459    0.8755    0.0000 C   0  0  0  0  0  0  0  0  0  0  0  0
    1.2964    1.3507    0.8719 H   0  0  0  0  0  0  0  0  0  0  0  0
    1.1722    1.5269   -0.7469 H   0  0  0  0  0  0  0  0  0  0  0  0
    2.1483    0.2790   -0.1336 H   0  0  0  0  0  0  0  0  0  0  0  0
    0.0000    0.0000    0.0000 C   0  0  0  0  0  0  0  0  0  0  0  0
    0.0114   -0.5808   -0.8159 H   0  0  0  0  0  0  0  0  0  0  0  0
    0.0115   -0.5815    0.8166 H   0  0  0  0  0  0  0  0  0  0  0  0
   -1.2459    0.8191   -0.0000 N   0  0  0  0  0  4  0  0  0  0  0  0
   -1.9347    0.3732    0.5704 H   0  0  0  0  0  0  0  0  0  0  0  0
   -1.0441    1.7273    0.3644 H   0  0  0  0  0  0  0  0  0  0  0  0
   -1.5868    0.9008   -0.9355 H   0  0  0  0  0  0  0  0  0  0  0  0
   -1.9485    3.4237    2.2758 C   0  0  0  0  0  0  0  0  0  0  0  0
   -1.0521    3.1530    1.8180 H   0  0  0  0  0  0  0  0  0  0  0  0
   -2.0658    2.6979    3.0143 H   0  0  0  0  0  0  0  0  0  0  0  0
   -1.7760    4.3735    2.7819 H   0  0  0  0  0  0  0  0  0  0  0  0
   -3.3212    3.3598    1.0879 S   0  0  0  0  0  0  0  0  0  0  0  0
   -4.7384    3.5359    2.2426 C   0  0  0  0  0  0  0  0  0  0  0  0
   -5.4484    4.0624    1.7890 H   0  0  0  0  0  0  0  0  0  0  0  0
   -5.0704    2.6272    2.4719 H   0  0  0  0  0  0  0  0  0  0  0  0
   -4.4212    4.0073    3.0576 H   0  0  0  0  0  0  0  0  0  0  0  0
  1  5  1  0
  5  8  1  0
  1  2  1  0
  1  3  1  0
  1  4  1  0
  5  6  1  0
  5  7  1  0
  8  9  1  0
  8 10  1  0
  8 11  1  0
 12 16  1  0
 16 17  1  0
 12 13  1  0
 12 14  1  0
 12 15  1  0
 17 18  1  0
 17 19  1  0
 17 20  1  0
M  CHG  1   8   1
M  END
>  <PDB_ID>  (815) 
pdb1yrz

>  <RESIDUE_NAME>  (815) 
LYS   MET

>  <FRAG_NAME>  (815) 
ETAM   MSM

>  <FRAG_ATOM_NUM>  (815) 
fragi: 11  fragj: 9

>  <atom.prop.CHAIN_ID>  (815) 
A A A A A A A A A A A Z Z Z Z Z Z Z Z Z

>  <atom.prop.IS_HEAVY_ATOM>  (815) 
1 0 0 0 1 0 0 1 0 0 0 1 0 0 0 1 1 0 0 0

>  <DIFUSE_FUNC_ATOM>  (815) 
n/a

>  <FINAL_SINGLE_POINT_ENERGY>  (815) 
0

>  <NONCOV_INTER_ENERGY_QM>  (815) 
0

>  <FF_Energy>  (815) 
-3.69

>  <QM_Energy>  (815) 
-9.25

>  <source>  (815) 
ETAM_MSM

>  <Index>  (815) 
5013

$$$$
ETAM-pdb1yrz-B-LYS-2513:MSM-pdb1yrz-B-MET-2362
     RDKit          3D

 20 18  0  0  0  0  0  0  0  0999 V2000
    1.2460    0.8714   -0.0000 C   0  0  0  0  0  0  0  0  0  0  0  0
    1.3043    1.3408    0.8743 H   0  0  0  0  0  0  0  0  0  0  0  0
    1.1738    1.5271   -0.7435 H   0  0  0  0  0  0  0  0  0  0  0  0
    2.1461    0.2729   -0.1409 H   0  0  0  0  0  0  0  0  0  0  0  0
    0.0000    0.0000    0.0000 C   0  0  0  0  0  0  0  0  0  0  0  0
    0.0111   -0.5831   -0.8162 H   0  0  0  0  0  0  0  0  0  0  0  0
    0.0100   -0.5826    0.8160 H   0  0  0  0  0  0  0  0  0  0  0  0
   -1.2460    0.8175    0.0000 N   0  0  0  0  0  4  0  0  0  0  0  0
   -1.1308    1.5945   -0.6174 H   0  0  0  0  0  0  0  0  0  0  0  0
   -2.0117    0.2536   -0.3086 H   0  0  0  0  0  0  0  0  0  0  0  0
   -1.4244    1.1477    0.9258 H   0  0  0  0  0  0  0  0  0  0  0  0
   -1.9270    3.4342    2.2532 C   0  0  0  0  0  0  0  0  0  0  0  0
   -1.0463    3.1772    1.7657 H   0  0  0  0  0  0  0  0  0  0  0  0
   -2.0266    2.6964    2.9785 H   0  0  0  0  0  0  0  0  0  0  0  0
   -1.7530    4.3795    2.7674 H   0  0  0  0  0  0  0  0  0  0  0  0
   -3.3436    3.3708    1.0830 S   0  0  0  0  0  0  0  0  0  0  0  0
   -4.7168    3.5171    2.2367 C   0  0  0  0  0  0  0  0  0  0  0  0
   -4.6726    2.7712    2.9006 H   0  0  0  0  0  0  0  0  0  0  0  0
   -4.6573    4.3934    2.7138 H   0  0  0  0  0  0  0  0  0  0  0  0
   -5.5795    3.4670    1.7340 H   0  0  0  0  0  0  0  0  0  0  0  0
  1  5  1  0
  5  8  1  0
  1  2  1  0
  1  3  1  0
  1  4  1  0
  5  6  1  0
  5  7  1  0
  8  9  1  0
  8 10  1  0
  8 11  1  0
 12 16  1  0
 16 17  1  0
 12 13  1  0
 12 14  1  0
 12 15  1  0
 17 18  1  0
 17 19  1  0
 17 20  1  0
M  CHG  1   8   1
M  END
>  <PDB_ID>  (816) 
pdb1yrz

>  <RESIDUE_NAME>  (816) 
LYS   MET

>  <FRAG_NAME>  (816) 
ETAM   MSM

>  <FRAG_ATOM_NUM>  (816) 
fragi: 11  fragj: 9

>  <atom.prop.CHAIN_ID>  (816) 
A A A A A A A A A A A Z Z Z Z Z Z Z Z Z

>  <atom.prop.IS_HEAVY_ATOM>  (816) 
1 0 0 0 1 0 0 1 0 0 0 1 0 0 0 1 1 0 0 0

>  <DIFUSE_FUNC_ATOM>  (816) 
n/a

>  <FINAL_SINGLE_POINT_ENERGY>  (816) 
0

>  <NONCOV_INTER_ENERGY_QM>  (816) 
0

>  <FF_Energy>  (816) 
-3.74

>  <QM_Energy>  (816) 
-9.5

>  <source>  (816) 
ETAM_MSM

>  <Index>  (816) 
5014

$$$$
ETAM-pdb1ypf-B-LYS-166:MSM-pdb1ypf-B-MET-228
     RDKit          3D

 20 18  0  0  0  0  0  0  0  0999 V2000
    1.2917    0.8852   -0.0000 C   0  0  0  0  0  0  0  0  0  0  0  0
    1.3087    1.4043   -0.8579 H   0  0  0  0  0  0  0  0  0  0  0  0
    2.0843    0.2713    0.0277 H   0  0  0  0  0  0  0  0  0  0  0  0
    1.3758    1.5905    0.8268 H   0  0  0  0  0  0  0  0  0  0  0  0
    0.0000    0.0000    0.0000 C   0  0  0  0  0  0  0  0  0  0  0  0
    0.0426   -0.6008   -0.8163 H   0  0  0  0  0  0  0  0  0  0  0  0
    0.0428   -0.6012    0.8165 H   0  0  0  0  0  0  0  0  0  0  0  0
   -1.2917    0.7465    0.0000 N   0  0  0  0  0  4  0  0  0  0  0  0
   -1.1088    1.7215    0.1135 H   0  0  0  0  0  0  0  0  0  0  0  0
   -1.7623    0.5912   -0.8671 H   0  0  0  0  0  0  0  0  0  0  0  0
   -1.8610    0.4205    0.7538 H   0  0  0  0  0  0  0  0  0  0  0  0
    0.6833    2.2695   -4.7994 C   0  0  0  0  0  0  0  0  0  0  0  0
    0.0719    3.0581   -5.0881 H   0  0  0  0  0  0  0  0  0  0  0  0
    0.9187    1.8022   -5.6968 H   0  0  0  0  0  0  0  0  0  0  0  0
    1.6065    2.7103   -4.4232 H   0  0  0  0  0  0  0  0  0  0  0  0
   -0.1929    1.1377   -3.6841 S   0  0  0  0  0  0  0  0  0  0  0  0
    0.9141   -0.2433   -3.6563 C   0  0  0  0  0  0  0  0  0  0  0  0
    1.8104    0.0385   -3.3007 H   0  0  0  0  0  0  0  0  0  0  0  0
    0.5463   -0.9700   -3.0673 H   0  0  0  0  0  0  0  0  0  0  0  0
    1.0351   -0.6090   -4.5843 H   0  0  0  0  0  0  0  0  0  0  0  0
  1  5  1  0
  5  8  1  0
  1  2  1  0
  1  3  1  0
  1  4  1  0
  5  6  1  0
  5  7  1  0
  8  9  1  0
  8 10  1  0
  8 11  1  0
 12 16  1  0
 16 17  1  0
 12 13  1  0
 12 14  1  0
 12 15  1  0
 17 18  1  0
 17 19  1  0
 17 20  1  0
M  CHG  1   8   1
M  END
>  <PDB_ID>  (817) 
pdb1ypf

>  <RESIDUE_NAME>  (817) 
LYS   MET

>  <FRAG_NAME>  (817) 
ETAM   MSM

>  <FRAG_ATOM_NUM>  (817) 
fragi: 11  fragj: 9

>  <atom.prop.CHAIN_ID>  (817) 
A A A A A A A A A A A Z Z Z Z Z Z Z Z Z

>  <atom.prop.IS_HEAVY_ATOM>  (817) 
1 0 0 0 1 0 0 1 0 0 0 1 0 0 0 1 1 0 0 0

>  <DIFUSE_FUNC_ATOM>  (817) 
n/a

>  <FINAL_SINGLE_POINT_ENERGY>  (817) 
0

>  <NONCOV_INTER_ENERGY_QM>  (817) 
0

>  <FF_Energy>  (817) 
-5.05

>  <QM_Energy>  (817) 
-10.11

>  <source>  (817) 
ETAM_MSM

>  <Index>  (817) 
5015

$$$$
ETAM-pdb3cmg-A-LYS-601:MSM-pdb3cmg-A-MET-610
     RDKit          3D

 20 18  0  0  0  0  0  0  0  0999 V2000
    1.2544    0.8951   -0.0000 C   0  0  0  0  0  0  0  0  0  0  0  0
    2.0597    0.3069    0.0978 H   0  0  0  0  0  0  0  0  0  0  0  0
    1.1991    1.5120    0.7874 H   0  0  0  0  0  0  0  0  0  0  0  0
    1.3753    1.4955   -0.9016 H   0  0  0  0  0  0  0  0  0  0  0  0
    0.0000    0.0000    0.0000 C   0  0  0  0  0  0  0  0  0  0  0  0
    0.0300   -0.5838   -0.8164 H   0  0  0  0  0  0  0  0  0  0  0  0
    0.0301   -0.5841    0.8162 H   0  0  0  0  0  0  0  0  0  0  0  0
   -1.2544    0.7902    0.0000 N   0  0  0  0  0  4  0  0  0  0  0  0
   -1.0375    1.7626   -0.0974 H   0  0  0  0  0  0  0  0  0  0  0  0
   -1.8325    0.5002   -0.7634 H   0  0  0  0  0  0  0  0  0  0  0  0
   -1.7428    0.6432    0.8611 H   0  0  0  0  0  0  0  0  0  0  0  0
   -2.3909    4.8073    0.3530 C   0  0  0  0  0  0  0  0  0  0  0  0
   -2.8640    4.6762   -0.5593 H   0  0  0  0  0  0  0  0  0  0  0  0
   -2.5815    5.7969    0.5940 H   0  0  0  0  0  0  0  0  0  0  0  0
   -2.9146    4.1885    1.0816 H   0  0  0  0  0  0  0  0  0  0  0  0
   -0.5847    4.5235    0.1870 S   0  0  0  0  0  0  0  0  0  0  0  0
   -0.0552    5.5074    1.6033 C   0  0  0  0  0  0  0  0  0  0  0  0
   -0.3415    6.4551    1.4709 H   0  0  0  0  0  0  0  0  0  0  0  0
   -0.4743    5.1422    2.4334 H   0  0  0  0  0  0  0  0  0  0  0  0
    0.9399    5.4634    1.6810 H   0  0  0  0  0  0  0  0  0  0  0  0
  1  5  1  0
  5  8  1  0
  1  2  1  0
  1  3  1  0
  1  4  1  0
  5  6  1  0
  5  7  1  0
  8  9  1  0
  8 10  1  0
  8 11  1  0
 12 16  1  0
 16 17  1  0
 12 13  1  0
 12 14  1  0
 12 15  1  0
 17 18  1  0
 17 19  1  0
 17 20  1  0
M  CHG  1   8   1
M  END
>  <PDB_ID>  (818) 
pdb3cmg

>  <RESIDUE_NAME>  (818) 
LYS   MET

>  <FRAG_NAME>  (818) 
ETAM   MSM

>  <FRAG_ATOM_NUM>  (818) 
fragi: 11  fragj: 9

>  <atom.prop.CHAIN_ID>  (818) 
A A A A A A A A A A A Z Z Z Z Z Z Z Z Z

>  <atom.prop.IS_HEAVY_ATOM>  (818) 
1 0 0 0 1 0 0 1 0 0 0 1 0 0 0 1 1 0 0 0

>  <DIFUSE_FUNC_ATOM>  (818) 
n/a

>  <FINAL_SINGLE_POINT_ENERGY>  (818) 
0

>  <NONCOV_INTER_ENERGY_QM>  (818) 
0

>  <FF_Energy>  (818) 
-4.88

>  <QM_Energy>  (818) 
-12.09

>  <source>  (818) 
ETAM_MSM

>  <Index>  (818) 
5024

$$$$
ETAM-pdb1yqf-E-LYS-36:MSM-pdb1yqf-E-MET-31
     RDKit          3D

 20 18  0  0  0  0  0  0  0  0999 V2000
    1.2493    0.8816    0.0000 C   0  0  0  0  0  0  0  0  0  0  0  0
    1.2757    1.3872    0.8535 H   0  0  0  0  0  0  0  0  0  0  0  0
    1.1975    1.4988   -0.7744 H   0  0  0  0  0  0  0  0  0  0  0  0
    2.1533    0.2785   -0.0845 H   0  0  0  0  0  0  0  0  0  0  0  0
    0.0000    0.0000    0.0000 C   0  0  0  0  0  0  0  0  0  0  0  0
    0.0192   -0.5839   -0.8164 H   0  0  0  0  0  0  0  0  0  0  0  0
    0.0195   -0.5836    0.8166 H   0  0  0  0  0  0  0  0  0  0  0  0
   -1.2493    0.8051   -0.0000 N   0  0  0  0  0  4  0  0  0  0  0  0
   -1.3676    1.2357    0.8944 H   0  0  0  0  0  0  0  0  0  0  0  0
   -1.1903    1.5108   -0.7051 H   0  0  0  0  0  0  0  0  0  0  0  0
   -2.0289    0.2092   -0.1893 H   0  0  0  0  0  0  0  0  0  0  0  0
   -4.6506    3.1152   -2.2480 C   0  0  0  0  0  0  0  0  0  0  0  0
   -4.2288    3.9421   -2.7001 H   0  0  0  0  0  0  0  0  0  0  0  0
   -5.6687    3.2783   -2.3107 H   0  0  0  0  0  0  0  0  0  0  0  0
   -4.4098    2.2411   -2.8532 H   0  0  0  0  0  0  0  0  0  0  0  0
   -4.1293    2.9942   -0.5231 S   0  0  0  0  0  0  0  0  0  0  0  0
   -5.6637    2.5231    0.2715 C   0  0  0  0  0  0  0  0  0  0  0  0
   -5.9821    1.6504   -0.1025 H   0  0  0  0  0  0  0  0  0  0  0  0
   -5.5162    2.4268    1.2566 H   0  0  0  0  0  0  0  0  0  0  0  0
   -6.3573    3.2268    0.1075 H   0  0  0  0  0  0  0  0  0  0  0  0
  1  5  1  0
  5  8  1  0
  1  2  1  0
  1  3  1  0
  1  4  1  0
  5  6  1  0
  5  7  1  0
  8  9  1  0
  8 10  1  0
  8 11  1  0
 12 16  1  0
 16 17  1  0
 12 13  1  0
 12 14  1  0
 12 15  1  0
 17 18  1  0
 17 19  1  0
 17 20  1  0
M  CHG  1   8   1
M  END
>  <PDB_ID>  (819) 
pdb1yqf

>  <RESIDUE_NAME>  (819) 
LYS   MET

>  <FRAG_NAME>  (819) 
ETAM   MSM

>  <FRAG_ATOM_NUM>  (819) 
fragi: 11  fragj: 9

>  <atom.prop.CHAIN_ID>  (819) 
A A A A A A A A A A A Z Z Z Z Z Z Z Z Z

>  <atom.prop.IS_HEAVY_ATOM>  (819) 
1 0 0 0 1 0 0 1 0 0 0 1 0 0 0 1 1 0 0 0

>  <DIFUSE_FUNC_ATOM>  (819) 
n/a

>  <FINAL_SINGLE_POINT_ENERGY>  (819) 
0

>  <NONCOV_INTER_ENERGY_QM>  (819) 
0

>  <FF_Energy>  (819) 
-4.6

>  <QM_Energy>  (819) 
-11.33

>  <source>  (819) 
ETAM_MSM

>  <Index>  (819) 
5026

$$$$
ETAM-pdb3com-B-LYS-59:MSM-pdb3com-B-MET-102
     RDKit          3D

 20 18  0  0  0  0  0  0  0  0999 V2000
    1.2321    0.8738   -0.0000 C   0  0  0  0  0  0  0  0  0  0  0  0
    1.2145    1.4517    0.8179 H   0  0  0  0  0  0  0  0  0  0  0  0
    1.2152    1.4530   -0.8153 H   0  0  0  0  0  0  0  0  0  0  0  0
    2.1567    0.2967    0.0006 H   0  0  0  0  0  0  0  0  0  0  0  0
    0.0000    0.0000    0.0000 C   0  0  0  0  0  0  0  0  0  0  0  0
    0.0078   -0.5782   -0.8166 H   0  0  0  0  0  0  0  0  0  0  0  0
    0.0070   -0.5803    0.8151 H   0  0  0  0  0  0  0  0  0  0  0  0
   -1.2321    0.8273    0.0000 N   0  0  0  0  0  4  0  0  0  0  0  0
   -1.9171    0.4063    0.5944 H   0  0  0  0  0  0  0  0  0  0  0  0
   -1.0171    1.7444    0.3377 H   0  0  0  0  0  0  0  0  0  0  0  0
   -1.5922    0.8913   -0.9316 H   0  0  0  0  0  0  0  0  0  0  0  0
    0.1949    0.6139    4.9241 C   0  0  0  0  0  0  0  0  0  0  0  0
   -0.4808    1.0066    5.5549 H   0  0  0  0  0  0  0  0  0  0  0  0
    1.1054    0.9567    5.1721 H   0  0  0  0  0  0  0  0  0  0  0  0
    0.1815   -0.4723    5.0132 H   0  0  0  0  0  0  0  0  0  0  0  0
   -0.2046    1.0507    3.2084 S   0  0  0  0  0  0  0  0  0  0  0  0
   -1.8741    0.2206    3.0036 C   0  0  0  0  0  0  0  0  0  0  0  0
   -2.4846    0.8838    2.6005 H   0  0  0  0  0  0  0  0  0  0  0  0
   -1.7434   -0.5593    2.4112 H   0  0  0  0  0  0  0  0  0  0  0  0
   -2.1776   -0.0537    3.9029 H   0  0  0  0  0  0  0  0  0  0  0  0
  1  5  1  0
  5  8  1  0
  1  2  1  0
  1  3  1  0
  1  4  1  0
  5  6  1  0
  5  7  1  0
  8  9  1  0
  8 10  1  0
  8 11  1  0
 12 16  1  0
 16 17  1  0
 12 13  1  0
 12 14  1  0
 12 15  1  0
 17 18  1  0
 17 19  1  0
 17 20  1  0
M  CHG  1   8   1
M  END
>  <PDB_ID>  (820) 
pdb3com

>  <RESIDUE_NAME>  (820) 
LYS   MET

>  <FRAG_NAME>  (820) 
ETAM   MSM

>  <FRAG_ATOM_NUM>  (820) 
fragi: 11  fragj: 9

>  <atom.prop.CHAIN_ID>  (820) 
A A A A A A A A A A A Z Z Z Z Z Z Z Z Z

>  <atom.prop.IS_HEAVY_ATOM>  (820) 
1 0 0 0 1 0 0 1 0 0 0 1 0 0 0 1 1 0 0 0

>  <DIFUSE_FUNC_ATOM>  (820) 
n/a

>  <FINAL_SINGLE_POINT_ENERGY>  (820) 
0

>  <NONCOV_INTER_ENERGY_QM>  (820) 
0

>  <FF_Energy>  (820) 
-1.69

>  <QM_Energy>  (820) 
-8.19

>  <source>  (820) 
ETAM_MSM

>  <Index>  (820) 
5041

$$$$
ETAM-pdb1ytm-B-LYS-1099:MSM-pdb1ytm-B-MET-1192
     RDKit          3D

 20 18  0  0  0  0  0  0  0  0999 V2000
    1.2415    0.8725    0.0000 C   0  0  0  0  0  0  0  0  0  0  0  0
    2.0335    0.2993   -0.1808 H   0  0  0  0  0  0  0  0  0  0  0  0
    1.3240    1.3078    0.8898 H   0  0  0  0  0  0  0  0  0  0  0  0
    1.1814    1.6439   -0.7678 H   0  0  0  0  0  0  0  0  0  0  0  0
    0.0000    0.0000    0.0000 C   0  0  0  0  0  0  0  0  0  0  0  0
    0.0118   -0.5833   -0.8159 H   0  0  0  0  0  0  0  0  0  0  0  0
    0.0116   -0.5834    0.8162 H   0  0  0  0  0  0  0  0  0  0  0  0
   -1.2415    0.8158   -0.0000 N   0  0  0  0  0  4  0  0  0  0  0  0
   -1.6842    0.7479   -0.8943 H   0  0  0  0  0  0  0  0  0  0  0  0
   -1.8626    0.4776    0.7067 H   0  0  0  0  0  0  0  0  0  0  0  0
   -1.0126    1.7714    0.1870 H   0  0  0  0  0  0  0  0  0  0  0  0
   -3.6051    1.2929   -4.2628 C   0  0  0  0  0  0  0  0  0  0  0  0
   -3.1247    1.6396   -5.1081 H   0  0  0  0  0  0  0  0  0  0  0  0
   -4.4927    1.8194   -4.2364 H   0  0  0  0  0  0  0  0  0  0  0  0
   -3.8308    0.2354   -4.4002 H   0  0  0  0  0  0  0  0  0  0  0  0
   -2.6147    1.6604   -2.7826 S   0  0  0  0  0  0  0  0  0  0  0  0
   -3.8968    1.8721   -1.5611 C   0  0  0  0  0  0  0  0  0  0  0  0
   -4.6918    2.3196   -1.9772 H   0  0  0  0  0  0  0  0  0  0  0  0
   -4.1737    0.9784   -1.2005 H   0  0  0  0  0  0  0  0  0  0  0  0
   -3.5575    2.4391   -0.8072 H   0  0  0  0  0  0  0  0  0  0  0  0
  1  5  1  0
  5  8  1  0
  1  2  1  0
  1  3  1  0
  1  4  1  0
  5  6  1  0
  5  7  1  0
  8  9  1  0
  8 10  1  0
  8 11  1  0
 12 16  1  0
 16 17  1  0
 12 13  1  0
 12 14  1  0
 12 15  1  0
 17 18  1  0
 17 19  1  0
 17 20  1  0
M  CHG  1   8   1
M  END
>  <PDB_ID>  (821) 
pdb1ytm

>  <RESIDUE_NAME>  (821) 
LYS   MET

>  <FRAG_NAME>  (821) 
ETAM   MSM

>  <FRAG_ATOM_NUM>  (821) 
fragi: 11  fragj: 9

>  <atom.prop.CHAIN_ID>  (821) 
A A A A A A A A A A A Z Z Z Z Z Z Z Z Z

>  <atom.prop.IS_HEAVY_ATOM>  (821) 
1 0 0 0 1 0 0 1 0 0 0 1 0 0 0 1 1 0 0 0

>  <DIFUSE_FUNC_ATOM>  (821) 
n/a

>  <FINAL_SINGLE_POINT_ENERGY>  (821) 
0

>  <NONCOV_INTER_ENERGY_QM>  (821) 
0

>  <FF_Energy>  (821) 
-4.23

>  <QM_Energy>  (821) 
-12.21

>  <source>  (821) 
ETAM_MSM

>  <Index>  (821) 
5045

$$$$
ETAM-pdb3cq0-A-LYS-200:MSM-pdb3cq0-A-MET-196
     RDKit          3D

 20 18  0  0  0  0  0  0  0  0999 V2000
    1.2805    0.8455   -0.0000 C   0  0  0  0  0  0  0  0  0  0  0  0
    1.3565    1.3027   -0.8895 H   0  0  0  0  0  0  0  0  0  0  0  0
    2.0641    0.2304    0.1197 H   0  0  0  0  0  0  0  0  0  0  0  0
    1.3153    1.6049    0.7812 H   0  0  0  0  0  0  0  0  0  0  0  0
    0.0000    0.0000    0.0000 C   0  0  0  0  0  0  0  0  0  0  0  0
    0.0177   -0.6063   -0.8159 H   0  0  0  0  0  0  0  0  0  0  0  0
    0.0168   -0.6068    0.8160 H   0  0  0  0  0  0  0  0  0  0  0  0
   -1.2805    0.7727    0.0000 N   0  0  0  0  0  4  0  0  0  0  0  0
   -2.0462    0.1389    0.0989 H   0  0  0  0  0  0  0  0  0  0  0  0
   -1.2745    1.4172    0.7625 H   0  0  0  0  0  0  0  0  0  0  0  0
   -1.3634    1.2702   -0.8612 H   0  0  0  0  0  0  0  0  0  0  0  0
   -0.4635   -3.0947    3.9427 C   0  0  0  0  0  0  0  0  0  0  0  0
    0.3127   -2.7791    4.5361 H   0  0  0  0  0  0  0  0  0  0  0  0
   -0.2884   -4.0924    3.7750 H   0  0  0  0  0  0  0  0  0  0  0  0
   -1.3898   -2.9977    4.5089 H   0  0  0  0  0  0  0  0  0  0  0  0
   -0.4895   -2.1812    2.3863 S   0  0  0  0  0  0  0  0  0  0  0  0
   -1.7402   -3.0657    1.4625 C   0  0  0  0  0  0  0  0  0  0  0  0
   -2.5652   -2.5035    1.3888 H   0  0  0  0  0  0  0  0  0  0  0  0
   -1.3983   -3.2723    0.5445 H   0  0  0  0  0  0  0  0  0  0  0  0
   -1.9635   -3.9218    1.9321 H   0  0  0  0  0  0  0  0  0  0  0  0
  1  5  1  0
  5  8  1  0
  1  2  1  0
  1  3  1  0
  1  4  1  0
  5  6  1  0
  5  7  1  0
  8  9  1  0
  8 10  1  0
  8 11  1  0
 12 16  1  0
 16 17  1  0
 12 13  1  0
 12 14  1  0
 12 15  1  0
 17 18  1  0
 17 19  1  0
 17 20  1  0
M  CHG  1   8   1
M  END
>  <PDB_ID>  (822) 
pdb3cq0

>  <RESIDUE_NAME>  (822) 
LYS   MET

>  <FRAG_NAME>  (822) 
ETAM   MSM

>  <FRAG_ATOM_NUM>  (822) 
fragi: 11  fragj: 9

>  <atom.prop.CHAIN_ID>  (822) 
A A A A A A A A A A A Z Z Z Z Z Z Z Z Z

>  <atom.prop.IS_HEAVY_ATOM>  (822) 
1 0 0 0 1 0 0 1 0 0 0 1 0 0 0 1 1 0 0 0

>  <DIFUSE_FUNC_ATOM>  (822) 
n/a

>  <FINAL_SINGLE_POINT_ENERGY>  (822) 
0

>  <NONCOV_INTER_ENERGY_QM>  (822) 
0

>  <FF_Energy>  (822) 
5.71

>  <QM_Energy>  (822) 
-6.56

>  <source>  (822) 
ETAM_MSM

>  <Index>  (822) 
5061

$$$$
ETAM-pdb3csx-B-LYS-55:MSM-pdb3csx-B-MET-31
     RDKit          3D

 20 18  0  0  0  0  0  0  0  0999 V2000
    1.3383    0.8171    0.0000 C   0  0  0  0  0  0  0  0  0  0  0  0
    1.7283    0.7677    0.9044 H   0  0  0  0  0  0  0  0  0  0  0  0
    1.1314    1.7450   -0.2596 H   0  0  0  0  0  0  0  0  0  0  0  0
    2.0608    0.4131   -0.7092 H   0  0  0  0  0  0  0  0  0  0  0  0
    0.0000    0.0000    0.0000 C   0  0  0  0  0  0  0  0  0  0  0  0
    0.0191   -0.6280   -0.8164 H   0  0  0  0  0  0  0  0  0  0  0  0
    0.0186   -0.6280    0.8169 H   0  0  0  0  0  0  0  0  0  0  0  0
   -1.3383    0.7370   -0.0000 N   0  0  0  0  0  4  0  0  0  0  0  0
   -1.1989    1.6371   -0.3956 H   0  0  0  0  0  0  0  0  0  0  0  0
   -1.9830    0.2121   -0.5431 H   0  0  0  0  0  0  0  0  0  0  0  0
   -1.6523    0.8126    0.9387 H   0  0  0  0  0  0  0  0  0  0  0  0
    3.0752   -4.7187   -0.6068 C   0  0  0  0  0  0  0  0  0  0  0  0
    3.6207   -5.2554    0.0618 H   0  0  0  0  0  0  0  0  0  0  0  0
    3.7215   -4.1003   -1.0888 H   0  0  0  0  0  0  0  0  0  0  0  0
    2.6787   -5.4181   -1.3428 H   0  0  0  0  0  0  0  0  0  0  0  0
    1.7573   -3.8081    0.1926 S   0  0  0  0  0  0  0  0  0  0  0  0
    0.7576   -3.1246   -1.1428 C   0  0  0  0  0  0  0  0  0  0  0  0
   -0.0006   -3.7456   -1.3389 H   0  0  0  0  0  0  0  0  0  0  0  0
    0.3995   -2.2343   -0.8644 H   0  0  0  0  0  0  0  0  0  0  0  0
    1.3252   -3.0184   -1.9586 H   0  0  0  0  0  0  0  0  0  0  0  0
  1  5  1  0
  5  8  1  0
  1  2  1  0
  1  3  1  0
  1  4  1  0
  5  6  1  0
  5  7  1  0
  8  9  1  0
  8 10  1  0
  8 11  1  0
 12 16  1  0
 16 17  1  0
 12 13  1  0
 12 14  1  0
 12 15  1  0
 17 18  1  0
 17 19  1  0
 17 20  1  0
M  CHG  1   8   1
M  END
>  <PDB_ID>  (823) 
pdb3csx

>  <RESIDUE_NAME>  (823) 
LYS   MET

>  <FRAG_NAME>  (823) 
ETAM   MSM

>  <FRAG_ATOM_NUM>  (823) 
fragi: 11  fragj: 9

>  <atom.prop.CHAIN_ID>  (823) 
A A A A A A A A A A A Z Z Z Z Z Z Z Z Z

>  <atom.prop.IS_HEAVY_ATOM>  (823) 
1 0 0 0 1 0 0 1 0 0 0 1 0 0 0 1 1 0 0 0

>  <DIFUSE_FUNC_ATOM>  (823) 
n/a

>  <FINAL_SINGLE_POINT_ENERGY>  (823) 
0

>  <NONCOV_INTER_ENERGY_QM>  (823) 
0

>  <FF_Energy>  (823) 
9.39

>  <QM_Energy>  (823) 
0.64

>  <source>  (823) 
ETAM_MSM

>  <Index>  (823) 
5075

$$$$
ETAM-pdb3ct7-A-LYS-153:MSM-pdb3ct7-A-MET-150
     RDKit          3D

 20 18  0  0  0  0  0  0  0  0999 V2000
    1.2489    0.8665   -0.0000 C   0  0  0  0  0  0  0  0  0  0  0  0
    1.2215    1.4608    0.7984 H   0  0  0  0  0  0  0  0  0  0  0  0
    1.2571    1.4095   -0.8337 H   0  0  0  0  0  0  0  0  0  0  0  0
    2.1542    0.2607    0.0392 H   0  0  0  0  0  0  0  0  0  0  0  0
    0.0000    0.0000    0.0000 C   0  0  0  0  0  0  0  0  0  0  0  0
    0.0108   -0.5865   -0.8166 H   0  0  0  0  0  0  0  0  0  0  0  0
    0.0110   -0.5870    0.8165 H   0  0  0  0  0  0  0  0  0  0  0  0
   -1.2489    0.8111   -0.0000 N   0  0  0  0  0  4  0  0  0  0  0  0
   -1.5888    0.8956    0.9356 H   0  0  0  0  0  0  0  0  0  0  0  0
   -1.0537    1.7191   -0.3683 H   0  0  0  0  0  0  0  0  0  0  0  0
   -1.9370    0.3603   -0.5670 H   0  0  0  0  0  0  0  0  0  0  0  0
   -1.4755   -4.3826   -1.4745 C   0  0  0  0  0  0  0  0  0  0  0  0
   -2.0538   -4.6985   -2.2526 H   0  0  0  0  0  0  0  0  0  0  0  0
   -1.8630   -4.8120   -0.6344 H   0  0  0  0  0  0  0  0  0  0  0  0
   -0.4594   -4.7491   -1.6205 H   0  0  0  0  0  0  0  0  0  0  0  0
   -1.5059   -2.5885   -1.3455 S   0  0  0  0  0  0  0  0  0  0  0  0
   -1.9731   -2.1073   -3.0350 C   0  0  0  0  0  0  0  0  0  0  0  0
   -2.8516   -2.5214   -3.2564 H   0  0  0  0  0  0  0  0  0  0  0  0
   -2.0421   -1.1143   -3.0803 H   0  0  0  0  0  0  0  0  0  0  0  0
   -1.2736   -2.4310   -3.6673 H   0  0  0  0  0  0  0  0  0  0  0  0
  1  5  1  0
  5  8  1  0
  1  2  1  0
  1  3  1  0
  1  4  1  0
  5  6  1  0
  5  7  1  0
  8  9  1  0
  8 10  1  0
  8 11  1  0
 12 16  1  0
 16 17  1  0
 12 13  1  0
 12 14  1  0
 12 15  1  0
 17 18  1  0
 17 19  1  0
 17 20  1  0
M  CHG  1   8   1
M  END
>  <PDB_ID>  (824) 
pdb3ct7

>  <RESIDUE_NAME>  (824) 
LYS   MET

>  <FRAG_NAME>  (824) 
ETAM   MSM

>  <FRAG_ATOM_NUM>  (824) 
fragi: 11  fragj: 9

>  <atom.prop.CHAIN_ID>  (824) 
A A A A A A A A A A A Z Z Z Z Z Z Z Z Z

>  <atom.prop.IS_HEAVY_ATOM>  (824) 
1 0 0 0 1 0 0 1 0 0 0 1 0 0 0 1 1 0 0 0

>  <DIFUSE_FUNC_ATOM>  (824) 
n/a

>  <FINAL_SINGLE_POINT_ENERGY>  (824) 
0

>  <NONCOV_INTER_ENERGY_QM>  (824) 
0

>  <FF_Energy>  (824) 
-2.77

>  <QM_Energy>  (824) 
-8.81

>  <source>  (824) 
ETAM_MSM

>  <Index>  (824) 
5088

$$$$
ETAM-pdb3ct7-D-LYS-153:MSM-pdb3ct7-D-MET-150
     RDKit          3D

 20 18  0  0  0  0  0  0  0  0999 V2000
    1.2517    0.8728   -0.0000 C   0  0  0  0  0  0  0  0  0  0  0  0
    1.2199    1.4662    0.7997 H   0  0  0  0  0  0  0  0  0  0  0  0
    1.2523    1.4202   -0.8320 H   0  0  0  0  0  0  0  0  0  0  0  0
    2.1642    0.2777    0.0353 H   0  0  0  0  0  0  0  0  0  0  0  0
    0.0000    0.0000    0.0000 C   0  0  0  0  0  0  0  0  0  0  0  0
    0.0164   -0.5873   -0.8160 H   0  0  0  0  0  0  0  0  0  0  0  0
    0.0165   -0.5876    0.8165 H   0  0  0  0  0  0  0  0  0  0  0  0
   -1.2517    0.8026    0.0000 N   0  0  0  0  0  4  0  0  0  0  0  0
   -1.0595    1.7190   -0.3513 H   0  0  0  0  0  0  0  0  0  0  0  0
   -1.9315    0.3576   -0.5827 H   0  0  0  0  0  0  0  0  0  0  0  0
   -1.6036    0.8694    0.9336 H   0  0  0  0  0  0  0  0  0  0  0  0
   -1.5091   -4.3659   -1.4132 C   0  0  0  0  0  0  0  0  0  0  0  0
   -2.1006   -4.6821   -2.1754 H   0  0  0  0  0  0  0  0  0  0  0  0
   -1.8851   -4.7672   -0.5594 H   0  0  0  0  0  0  0  0  0  0  0  0
   -0.5002   -4.7482   -1.5689 H   0  0  0  0  0  0  0  0  0  0  0  0
   -1.4961   -2.5627   -1.3202 S   0  0  0  0  0  0  0  0  0  0  0  0
   -2.0297   -2.1001   -3.0135 C   0  0  0  0  0  0  0  0  0  0  0  0
   -2.9656   -2.4093   -3.1431 H   0  0  0  0  0  0  0  0  0  0  0  0
   -1.9745   -1.1118   -3.1015 H   0  0  0  0  0  0  0  0  0  0  0  0
   -1.4229   -2.5417   -3.6653 H   0  0  0  0  0  0  0  0  0  0  0  0
  1  5  1  0
  5  8  1  0
  1  2  1  0
  1  3  1  0
  1  4  1  0
  5  6  1  0
  5  7  1  0
  8  9  1  0
  8 10  1  0
  8 11  1  0
 12 16  1  0
 16 17  1  0
 12 13  1  0
 12 14  1  0
 12 15  1  0
 17 18  1  0
 17 19  1  0
 17 20  1  0
M  CHG  1   8   1
M  END
>  <PDB_ID>  (825) 
pdb3ct7

>  <RESIDUE_NAME>  (825) 
LYS   MET

>  <FRAG_NAME>  (825) 
ETAM   MSM

>  <FRAG_ATOM_NUM>  (825) 
fragi: 11  fragj: 9

>  <atom.prop.CHAIN_ID>  (825) 
A A A A A A A A A A A Z Z Z Z Z Z Z Z Z

>  <atom.prop.IS_HEAVY_ATOM>  (825) 
1 0 0 0 1 0 0 1 0 0 0 1 0 0 0 1 1 0 0 0

>  <DIFUSE_FUNC_ATOM>  (825) 
n/a

>  <FINAL_SINGLE_POINT_ENERGY>  (825) 
0

>  <NONCOV_INTER_ENERGY_QM>  (825) 
0

>  <FF_Energy>  (825) 
-2.34

>  <QM_Energy>  (825) 
-8.9

>  <source>  (825) 
ETAM_MSM

>  <Index>  (825) 
5093

$$$$
ETAM-pdb3ct7-F-LYS-153:MSM-pdb3ct7-F-MET-150
     RDKit          3D

 20 18  0  0  0  0  0  0  0  0999 V2000
    1.2388    0.8757    0.0000 C   0  0  0  0  0  0  0  0  0  0  0  0
    1.2124    1.4647    0.8026 H   0  0  0  0  0  0  0  0  0  0  0  0
    1.2401    1.4254   -0.8304 H   0  0  0  0  0  0  0  0  0  0  0  0
    2.1512    0.2802    0.0303 H   0  0  0  0  0  0  0  0  0  0  0  0
    0.0000    0.0000    0.0000 C   0  0  0  0  0  0  0  0  0  0  0  0
    0.0175   -0.5857   -0.8159 H   0  0  0  0  0  0  0  0  0  0  0  0
    0.0171   -0.5859    0.8161 H   0  0  0  0  0  0  0  0  0  0  0  0
   -1.2388    0.8053   -0.0000 N   0  0  0  0  0  4  0  0  0  0  0  0
   -1.0546    1.7071    0.3955 H   0  0  0  0  0  0  0  0  0  0  0  0
   -1.5680    0.9172   -0.9390 H   0  0  0  0  0  0  0  0  0  0  0  0
   -1.9410    0.3429    0.5439 H   0  0  0  0  0  0  0  0  0  0  0  0
   -1.4414   -4.3553   -1.4948 C   0  0  0  0  0  0  0  0  0  0  0  0
   -2.0363   -4.6947   -2.2580 H   0  0  0  0  0  0  0  0  0  0  0  0
   -1.8187   -4.7825   -0.6419 H   0  0  0  0  0  0  0  0  0  0  0  0
   -0.4288   -4.7269   -1.6516 H   0  0  0  0  0  0  0  0  0  0  0  0
   -1.5232   -2.5443   -1.3857 S   0  0  0  0  0  0  0  0  0  0  0  0
   -2.0079   -2.0862   -3.0661 C   0  0  0  0  0  0  0  0  0  0  0  0
   -1.3219   -1.4703   -3.4486 H   0  0  0  0  0  0  0  0  0  0  0  0
   -2.0705   -2.9106   -3.6250 H   0  0  0  0  0  0  0  0  0  0  0  0
   -2.8943   -1.6290   -3.0374 H   0  0  0  0  0  0  0  0  0  0  0  0
  1  5  1  0
  5  8  1  0
  1  2  1  0
  1  3  1  0
  1  4  1  0
  5  6  1  0
  5  7  1  0
  8  9  1  0
  8 10  1  0
  8 11  1  0
 12 16  1  0
 16 17  1  0
 12 13  1  0
 12 14  1  0
 12 15  1  0
 17 18  1  0
 17 19  1  0
 17 20  1  0
M  CHG  1   8   1
M  END
>  <PDB_ID>  (826) 
pdb3ct7

>  <RESIDUE_NAME>  (826) 
LYS   MET

>  <FRAG_NAME>  (826) 
ETAM   MSM

>  <FRAG_ATOM_NUM>  (826) 
fragi: 11  fragj: 9

>  <atom.prop.CHAIN_ID>  (826) 
A A A A A A A A A A A Z Z Z Z Z Z Z Z Z

>  <atom.prop.IS_HEAVY_ATOM>  (826) 
1 0 0 0 1 0 0 1 0 0 0 1 0 0 0 1 1 0 0 0

>  <DIFUSE_FUNC_ATOM>  (826) 
n/a

>  <FINAL_SINGLE_POINT_ENERGY>  (826) 
0

>  <NONCOV_INTER_ENERGY_QM>  (826) 
0

>  <FF_Energy>  (826) 
-2.69

>  <QM_Energy>  (826) 
-8.52

>  <source>  (826) 
ETAM_MSM

>  <Index>  (826) 
5095

$$$$
ETAM-pdb3cuo-B-MET-1:MSM-pdb3cuo-A-MET-32
     RDKit          3D

 20 18  0  0  0  0  0  0  0  0999 V2000
    1.2729    0.8902   -0.0000 C   0  0  0  0  0  0  0  0  0  0  0  0
    1.0250    1.8118    0.3316 H   0  0  0  0  0  0  0  0  0  0  0  0
    1.9427    0.4995    0.6475 H   0  0  0  0  0  0  0  0  0  0  0  0
    1.7715    1.0069   -0.9622 H   0  0  0  0  0  0  0  0  0  0  0  0
    0.0000    0.0000    0.0000 C   0  0  0  0  0  0  0  0  0  0  0  0
    0.0324   -0.4897   -0.8876 H   0  0  0  0  0  0  0  0  0  0  0  0
    0.0653   -0.7354    0.8019 H   0  0  0  0  0  0  0  0  0  0  0  0
   -1.2729    0.8164    0.0000 N   0  0  0  0  0  4  0  0  0  0  0  0
   -1.8679    0.4740   -0.7183 H   0  0  0  0  0  0  0  0  0  0  0  0
   -1.7108    0.7202    0.8861 H   0  0  0  0  0  0  0  0  0  0  0  0
   -1.0392    1.7670   -0.1679 H   0  0  0  0  0  0  0  0  0  0  0  0
   -3.1273    1.0850   -4.7088 C   0  0  0  0  0  0  0  0  0  0  0  0
   -2.8633    1.2714   -5.6751 H   0  0  0  0  0  0  0  0  0  0  0  0
   -3.6946    1.8751   -4.4060 H   0  0  0  0  0  0  0  0  0  0  0  0
   -3.7550    0.1940   -4.6971 H   0  0  0  0  0  0  0  0  0  0  0  0
   -1.6135    0.9381   -3.6467 S   0  0  0  0  0  0  0  0  0  0  0  0
   -0.9408   -0.6168   -4.0150 C   0  0  0  0  0  0  0  0  0  0  0  0
   -0.1422   -0.5327   -4.6297 H   0  0  0  0  0  0  0  0  0  0  0  0
   -0.6348   -1.0897   -3.1758 H   0  0  0  0  0  0  0  0  0  0  0  0
   -1.6209   -1.2087   -4.4721 H   0  0  0  0  0  0  0  0  0  0  0  0
  1  5  1  0
  5  8  1  0
  1  2  1  0
  1  3  1  0
  1  4  1  0
  5  6  1  0
  5  7  1  0
  8  9  1  0
  8 10  1  0
  8 11  1  0
 12 16  1  0
 16 17  1  0
 12 13  1  0
 12 14  1  0
 12 15  1  0
 17 18  1  0
 17 19  1  0
 17 20  1  0
M  CHG  1   8   1
M  END
>  <PDB_ID>  (827) 
pdb3cuo

>  <RESIDUE_NAME>  (827) 
MET   MET

>  <FRAG_NAME>  (827) 
ETAM   MSM

>  <FRAG_ATOM_NUM>  (827) 
fragi: 11  fragj: 9

>  <atom.prop.CHAIN_ID>  (827) 
A A A A A A A A A A A Z Z Z Z Z Z Z Z Z

>  <atom.prop.IS_HEAVY_ATOM>  (827) 
1 0 0 0 1 0 0 1 0 0 0 1 0 0 0 1 1 0 0 0

>  <DIFUSE_FUNC_ATOM>  (827) 
n/a

>  <FINAL_SINGLE_POINT_ENERGY>  (827) 
0

>  <NONCOV_INTER_ENERGY_QM>  (827) 
0

>  <FF_Energy>  (827) 
-5.01

>  <QM_Energy>  (827) 
-12.47

>  <source>  (827) 
ETAM_MSM

>  <Index>  (827) 
5103

$$$$
ETAM-pdb1z01-A-LYS-354:MSM-pdb1z01-A-MET-201
     RDKit          3D

 20 18  0  0  0  0  0  0  0  0999 V2000
    1.2634    0.8729   -0.0000 C   0  0  0  0  0  0  0  0  0  0  0  0
    1.2698    1.4105    0.8350 H   0  0  0  0  0  0  0  0  0  0  0  0
    1.2319    1.4646   -0.7962 H   0  0  0  0  0  0  0  0  0  0  0  0
    2.1678    0.2659   -0.0407 H   0  0  0  0  0  0  0  0  0  0  0  0
    0.0000    0.0000    0.0000 C   0  0  0  0  0  0  0  0  0  0  0  0
    0.0198   -0.5907   -0.8159 H   0  0  0  0  0  0  0  0  0  0  0  0
    0.0202   -0.5913    0.8162 H   0  0  0  0  0  0  0  0  0  0  0  0
   -1.2634    0.7933    0.0000 N   0  0  0  0  0  4  0  0  0  0  0  0
   -1.9607    0.3028   -0.5207 H   0  0  0  0  0  0  0  0  0  0  0  0
   -1.5739    0.9197    0.9412 H   0  0  0  0  0  0  0  0  0  0  0  0
   -1.0936    1.6836   -0.4200 H   0  0  0  0  0  0  0  0  0  0  0  0
    0.2100   -3.4889    4.8369 C   0  0  0  0  0  0  0  0  0  0  0  0
    1.0128   -2.8716    5.0030 H   0  0  0  0  0  0  0  0  0  0  0  0
    0.5149   -4.4200    5.1433 H   0  0  0  0  0  0  0  0  0  0  0  0
   -0.6146   -3.1657    5.4723 H   0  0  0  0  0  0  0  0  0  0  0  0
   -0.2134   -3.5134    3.0652 S   0  0  0  0  0  0  0  0  0  0  0  0
   -0.4503   -1.7895    2.7221 C   0  0  0  0  0  0  0  0  0  0  0  0
    0.4376   -1.3288    2.6406 H   0  0  0  0  0  0  0  0  0  0  0  0
   -0.9550   -1.6756    1.8613 H   0  0  0  0  0  0  0  0  0  0  0  0
   -0.9719   -1.3589    3.4638 H   0  0  0  0  0  0  0  0  0  0  0  0
  1  5  1  0
  5  8  1  0
  1  2  1  0
  1  3  1  0
  1  4  1  0
  5  6  1  0
  5  7  1  0
  8  9  1  0
  8 10  1  0
  8 11  1  0
 12 16  1  0
 16 17  1  0
 12 13  1  0
 12 14  1  0
 12 15  1  0
 17 18  1  0
 17 19  1  0
 17 20  1  0
M  CHG  1   8   1
M  END
>  <PDB_ID>  (828) 
pdb1z01

>  <RESIDUE_NAME>  (828) 
LYS   MET

>  <FRAG_NAME>  (828) 
ETAM   MSM

>  <FRAG_ATOM_NUM>  (828) 
fragi: 11  fragj: 9

>  <atom.prop.CHAIN_ID>  (828) 
A A A A A A A A A A A Z Z Z Z Z Z Z Z Z

>  <atom.prop.IS_HEAVY_ATOM>  (828) 
1 0 0 0 1 0 0 1 0 0 0 1 0 0 0 1 1 0 0 0

>  <DIFUSE_FUNC_ATOM>  (828) 
n/a

>  <FINAL_SINGLE_POINT_ENERGY>  (828) 
0

>  <NONCOV_INTER_ENERGY_QM>  (828) 
0

>  <FF_Energy>  (828) 
8.47

>  <QM_Energy>  (828) 
1.97

>  <source>  (828) 
ETAM_MSM

>  <Index>  (828) 
5105

$$$$
ETAM-pdb1z52-A-LYS-66:MSM-pdb1z52-A-MET-57
     RDKit          3D

 20 18  0  0  0  0  0  0  0  0999 V2000
    1.2690    0.8778    0.0000 C   0  0  0  0  0  0  0  0  0  0  0  0
    1.2357    1.4691    0.7914 H   0  0  0  0  0  0  0  0  0  0  0  0
    1.2843    1.3986   -0.8401 H   0  0  0  0  0  0  0  0  0  0  0  0
    2.1662    0.2612    0.0539 H   0  0  0  0  0  0  0  0  0  0  0  0
    0.0000    0.0000    0.0000 C   0  0  0  0  0  0  0  0  0  0  0  0
    0.0177   -0.5842   -0.8163 H   0  0  0  0  0  0  0  0  0  0  0  0
    0.0166   -0.5847    0.8167 H   0  0  0  0  0  0  0  0  0  0  0  0
   -1.2690    0.8055   -0.0000 N   0  0  0  0  0  4  0  0  0  0  0  0
   -1.0940    1.6870   -0.4317 H   0  0  0  0  0  0  0  0  0  0  0  0
   -1.9674    0.3093   -0.5096 H   0  0  0  0  0  0  0  0  0  0  0  0
   -1.5666    0.9413    0.9419 H   0  0  0  0  0  0  0  0  0  0  0  0
    0.4447   -3.5071   -3.0048 C   0  0  0  0  0  0  0  0  0  0  0  0
   -0.3019   -4.0148   -2.5046 H   0  0  0  0  0  0  0  0  0  0  0  0
    1.3043   -3.7234   -2.4765 H   0  0  0  0  0  0  0  0  0  0  0  0
    0.5416   -3.9505   -3.9958 H   0  0  0  0  0  0  0  0  0  0  0  0
    0.1245   -1.7392   -3.0180 S   0  0  0  0  0  0  0  0  0  0  0  0
   -1.6504   -1.7182   -2.9029 C   0  0  0  0  0  0  0  0  0  0  0  0
   -1.9434   -2.1632   -2.0532 H   0  0  0  0  0  0  0  0  0  0  0  0
   -1.9822   -0.7709   -2.9076 H   0  0  0  0  0  0  0  0  0  0  0  0
   -2.0491   -2.2082   -3.6818 H   0  0  0  0  0  0  0  0  0  0  0  0
  1  5  1  0
  5  8  1  0
  1  2  1  0
  1  3  1  0
  1  4  1  0
  5  6  1  0
  5  7  1  0
  8  9  1  0
  8 10  1  0
  8 11  1  0
 12 16  1  0
 16 17  1  0
 12 13  1  0
 12 14  1  0
 12 15  1  0
 17 18  1  0
 17 19  1  0
 17 20  1  0
M  CHG  1   8   1
M  END
>  <PDB_ID>  (829) 
pdb1z52

>  <RESIDUE_NAME>  (829) 
LYS   MET

>  <FRAG_NAME>  (829) 
ETAM   MSM

>  <FRAG_ATOM_NUM>  (829) 
fragi: 11  fragj: 9

>  <atom.prop.CHAIN_ID>  (829) 
A A A A A A A A A A A Z Z Z Z Z Z Z Z Z

>  <atom.prop.IS_HEAVY_ATOM>  (829) 
1 0 0 0 1 0 0 1 0 0 0 1 0 0 0 1 1 0 0 0

>  <DIFUSE_FUNC_ATOM>  (829) 
n/a

>  <FINAL_SINGLE_POINT_ENERGY>  (829) 
0

>  <NONCOV_INTER_ENERGY_QM>  (829) 
0

>  <FF_Energy>  (829) 
-0.27

>  <QM_Energy>  (829) 
-6.11

>  <source>  (829) 
ETAM_MSM

>  <Index>  (829) 
5118

$$$$
ETAM-pdb1z52-B-LYS-66:MSM-pdb1z52-B-MET-57
     RDKit          3D

 20 18  0  0  0  0  0  0  0  0999 V2000
    1.2511    0.8705    0.0000 C   0  0  0  0  0  0  0  0  0  0  0  0
    2.0447    0.2835    0.1424 H   0  0  0  0  0  0  0  0  0  0  0  0
    1.1781    1.5289    0.7456 H   0  0  0  0  0  0  0  0  0  0  0  0
    1.3790    1.4121   -0.9372 H   0  0  0  0  0  0  0  0  0  0  0  0
    0.0000    0.0000    0.0000 C   0  0  0  0  0  0  0  0  0  0  0  0
    0.0143   -0.5864   -0.8163 H   0  0  0  0  0  0  0  0  0  0  0  0
    0.0138   -0.5865    0.8160 H   0  0  0  0  0  0  0  0  0  0  0  0
   -1.2511    0.8072   -0.0000 N   0  0  0  0  0  4  0  0  0  0  0  0
   -1.4344    1.1335   -0.9263 H   0  0  0  0  0  0  0  0  0  0  0  0
   -2.0117    0.2386    0.3118 H   0  0  0  0  0  0  0  0  0  0  0  0
   -1.1414    1.5876    0.6148 H   0  0  0  0  0  0  0  0  0  0  0  0
   -2.2946    0.9959   -5.0268 C   0  0  0  0  0  0  0  0  0  0  0  0
   -2.4198   -0.0482   -5.0531 H   0  0  0  0  0  0  0  0  0  0  0  0
   -1.2671    1.0950   -5.2287 H   0  0  0  0  0  0  0  0  0  0  0  0
   -2.8351    1.4099   -5.8779 H   0  0  0  0  0  0  0  0  0  0  0  0
   -2.6677    1.6295   -3.3491 S   0  0  0  0  0  0  0  0  0  0  0  0
   -3.9644    0.4843   -2.8692 C   0  0  0  0  0  0  0  0  0  0  0  0
   -4.2810   -0.0185   -3.6741 H   0  0  0  0  0  0  0  0  0  0  0  0
   -3.6071   -0.1608   -2.1936 H   0  0  0  0  0  0  0  0  0  0  0  0
   -4.7289    0.9926   -2.4727 H   0  0  0  0  0  0  0  0  0  0  0  0
  1  5  1  0
  5  8  1  0
  1  2  1  0
  1  3  1  0
  1  4  1  0
  5  6  1  0
  5  7  1  0
  8  9  1  0
  8 10  1  0
  8 11  1  0
 12 16  1  0
 16 17  1  0
 12 13  1  0
 12 14  1  0
 12 15  1  0
 17 18  1  0
 17 19  1  0
 17 20  1  0
M  CHG  1   8   1
M  END
>  <PDB_ID>  (830) 
pdb1z52

>  <RESIDUE_NAME>  (830) 
LYS   MET

>  <FRAG_NAME>  (830) 
ETAM   MSM

>  <FRAG_ATOM_NUM>  (830) 
fragi: 11  fragj: 9

>  <atom.prop.CHAIN_ID>  (830) 
A A A A A A A A A A A Z Z Z Z Z Z Z Z Z

>  <atom.prop.IS_HEAVY_ATOM>  (830) 
1 0 0 0 1 0 0 1 0 0 0 1 0 0 0 1 1 0 0 0

>  <DIFUSE_FUNC_ATOM>  (830) 
n/a

>  <FINAL_SINGLE_POINT_ENERGY>  (830) 
0

>  <NONCOV_INTER_ENERGY_QM>  (830) 
0

>  <FF_Energy>  (830) 
-4.24

>  <QM_Energy>  (830) 
-11.14

>  <source>  (830) 
ETAM_MSM

>  <Index>  (830) 
5119

$$$$
ETAM-pdb1z5l-B-LYS-91:MSM-pdb1z5l-B-MET-87
     RDKit          3D

 20 18  0  0  0  0  0  0  0  0999 V2000
    1.2831    0.8814    0.0000 C   0  0  0  0  0  0  0  0  0  0  0  0
    1.2556    1.4576    0.8166 H   0  0  0  0  0  0  0  0  0  0  0  0
    1.2556    1.4570   -0.8167 H   0  0  0  0  0  0  0  0  0  0  0  0
    2.2103    0.3083    0.0005 H   0  0  0  0  0  0  0  0  0  0  0  0
    0.0000    0.0000    0.0000 C   0  0  0  0  0  0  0  0  0  0  0  0
    0.0130   -0.5792   -0.8160 H   0  0  0  0  0  0  0  0  0  0  0  0
    0.0130   -0.5793    0.8161 H   0  0  0  0  0  0  0  0  0  0  0  0
   -1.2831    0.8185   -0.0000 N   0  0  0  0  0  4  0  0  0  0  0  0
   -1.8141    0.5702    0.8028 H   0  0  0  0  0  0  0  0  0  0  0  0
   -1.0419    1.7822    0.0278 H   0  0  0  0  0  0  0  0  0  0  0  0
   -1.7891    0.6101   -0.8303 H   0  0  0  0  0  0  0  0  0  0  0  0
   -0.4800   -2.6764    4.7372 C   0  0  0  0  0  0  0  0  0  0  0  0
   -1.4513   -3.0001    4.6993 H   0  0  0  0  0  0  0  0  0  0  0  0
   -0.3865   -2.1833    5.6298 H   0  0  0  0  0  0  0  0  0  0  0  0
    0.1739   -3.5482    4.7525 H   0  0  0  0  0  0  0  0  0  0  0  0
   -0.1021   -1.6122    3.3721 S   0  0  0  0  0  0  0  0  0  0  0  0
   -0.9375   -2.5349    2.0680 C   0  0  0  0  0  0  0  0  0  0  0  0
   -0.3855   -3.3305    1.8208 H   0  0  0  0  0  0  0  0  0  0  0  0
   -1.8313   -2.8360    2.3978 H   0  0  0  0  0  0  0  0  0  0  0  0
   -1.0547   -1.9453    1.2696 H   0  0  0  0  0  0  0  0  0  0  0  0
  1  5  1  0
  5  8  1  0
  1  2  1  0
  1  3  1  0
  1  4  1  0
  5  6  1  0
  5  7  1  0
  8  9  1  0
  8 10  1  0
  8 11  1  0
 12 16  1  0
 16 17  1  0
 12 13  1  0
 12 14  1  0
 12 15  1  0
 17 18  1  0
 17 19  1  0
 17 20  1  0
M  CHG  1   8   1
M  END
>  <PDB_ID>  (831) 
pdb1z5l

>  <RESIDUE_NAME>  (831) 
LYS   MET

>  <FRAG_NAME>  (831) 
ETAM   MSM

>  <FRAG_ATOM_NUM>  (831) 
fragi: 11  fragj: 9

>  <atom.prop.CHAIN_ID>  (831) 
A A A A A A A A A A A Z Z Z Z Z Z Z Z Z

>  <atom.prop.IS_HEAVY_ATOM>  (831) 
1 0 0 0 1 0 0 1 0 0 0 1 0 0 0 1 1 0 0 0

>  <DIFUSE_FUNC_ATOM>  (831) 
n/a

>  <FINAL_SINGLE_POINT_ENERGY>  (831) 
0

>  <NONCOV_INTER_ENERGY_QM>  (831) 
0

>  <FF_Energy>  (831) 
2.68

>  <QM_Energy>  (831) 
-3.24

>  <source>  (831) 
ETAM_MSM

>  <Index>  (831) 
5122

$$$$
ETAM-pdb1z5l-D-LYS-91:MSM-pdb1z5l-D-MET-87
     RDKit          3D

 20 18  0  0  0  0  0  0  0  0999 V2000
    1.2545    0.8802   -0.0000 C   0  0  0  0  0  0  0  0  0  0  0  0
    1.2403    1.4470    0.8267 H   0  0  0  0  0  0  0  0  0  0  0  0
    1.2192    1.4759   -0.8061 H   0  0  0  0  0  0  0  0  0  0  0  0
    2.1877    0.3175   -0.0211 H   0  0  0  0  0  0  0  0  0  0  0  0
    0.0000    0.0000    0.0000 C   0  0  0  0  0  0  0  0  0  0  0  0
    0.0168   -0.5828   -0.8161 H   0  0  0  0  0  0  0  0  0  0  0  0
    0.0167   -0.5828    0.8169 H   0  0  0  0  0  0  0  0  0  0  0  0
   -1.2545    0.8098   -0.0000 N   0  0  0  0  0  4  0  0  0  0  0  0
   -1.8648    0.4705   -0.7137 H   0  0  0  0  0  0  0  0  0  0  0  0
   -1.6989    0.7276    0.8911 H   0  0  0  0  0  0  0  0  0  0  0  0
   -1.0281    1.7662   -0.1770 H   0  0  0  0  0  0  0  0  0  0  0  0
   -0.4544   -4.4237    2.6422 C   0  0  0  0  0  0  0  0  0  0  0  0
   -1.0944   -4.7612    1.9193 H   0  0  0  0  0  0  0  0  0  0  0  0
   -0.9886   -4.4251    3.5136 H   0  0  0  0  0  0  0  0  0  0  0  0
    0.3577   -5.1442    2.7398 H   0  0  0  0  0  0  0  0  0  0  0  0
    0.1424   -2.7666    2.2530 S   0  0  0  0  0  0  0  0  0  0  0  0
    0.6639   -3.1249    0.5701 C   0  0  0  0  0  0  0  0  0  0  0  0
    1.6041   -3.4648    0.5789 H   0  0  0  0  0  0  0  0  0  0  0  0
    0.0608   -3.8186    0.1756 H   0  0  0  0  0  0  0  0  0  0  0  0
    0.6155   -2.2900    0.0225 H   0  0  0  0  0  0  0  0  0  0  0  0
  1  5  1  0
  5  8  1  0
  1  2  1  0
  1  3  1  0
  1  4  1  0
  5  6  1  0
  5  7  1  0
  8  9  1  0
  8 10  1  0
  8 11  1  0
 12 16  1  0
 16 17  1  0
 12 13  1  0
 12 14  1  0
 12 15  1  0
 17 18  1  0
 17 19  1  0
 17 20  1  0
M  CHG  1   8   1
M  END
>  <PDB_ID>  (832) 
pdb1z5l

>  <RESIDUE_NAME>  (832) 
LYS   MET

>  <FRAG_NAME>  (832) 
ETAM   MSM

>  <FRAG_ATOM_NUM>  (832) 
fragi: 11  fragj: 9

>  <atom.prop.CHAIN_ID>  (832) 
A A A A A A A A A A A Z Z Z Z Z Z Z Z Z

>  <atom.prop.IS_HEAVY_ATOM>  (832) 
1 0 0 0 1 0 0 1 0 0 0 1 0 0 0 1 1 0 0 0

>  <DIFUSE_FUNC_ATOM>  (832) 
n/a

>  <FINAL_SINGLE_POINT_ENERGY>  (832) 
0

>  <NONCOV_INTER_ENERGY_QM>  (832) 
0

>  <FF_Energy>  (832) 
2.56

>  <QM_Energy>  (832) 
-3.47

>  <source>  (832) 
ETAM_MSM

>  <Index>  (832) 
5124

$$$$
ETAM-pdb1z5z-A-LYS-721:MSM-pdb1z5z-A-MET-679
     RDKit          3D

 20 18  0  0  0  0  0  0  0  0999 V2000
    1.2363    0.8741   -0.0000 C   0  0  0  0  0  0  0  0  0  0  0  0
    1.1801    1.5091    0.7673 H   0  0  0  0  0  0  0  0  0  0  0  0
    1.2703    1.3817   -0.8583 H   0  0  0  0  0  0  0  0  0  0  0  0
    2.1524    0.2915    0.0969 H   0  0  0  0  0  0  0  0  0  0  0  0
    0.0000    0.0000    0.0000 C   0  0  0  0  0  0  0  0  0  0  0  0
    0.0051   -0.5769   -0.8161 H   0  0  0  0  0  0  0  0  0  0  0  0
    0.0057   -0.5773    0.8166 H   0  0  0  0  0  0  0  0  0  0  0  0
   -1.2363    0.8327    0.0000 N   0  0  0  0  0  4  0  0  0  0  0  0
   -2.0337    0.2400    0.1083 H   0  0  0  0  0  0  0  0  0  0  0  0
   -1.1963    1.4832    0.7569 H   0  0  0  0  0  0  0  0  0  0  0  0
   -1.3017    1.3283   -0.8655 H   0  0  0  0  0  0  0  0  0  0  0  0
    0.5976    5.0122    0.4908 C   0  0  0  0  0  0  0  0  0  0  0  0
    1.0160    4.5113    1.2735 H   0  0  0  0  0  0  0  0  0  0  0  0
   -0.3954    5.0983    0.7031 H   0  0  0  0  0  0  0  0  0  0  0  0
    1.0340    6.0096    0.4390 H   0  0  0  0  0  0  0  0  0  0  0  0
    0.8520    4.1369   -1.0413 S   0  0  0  0  0  0  0  0  0  0  0  0
    2.5641    3.6159   -0.8871 C   0  0  0  0  0  0  0  0  0  0  0  0
    2.9964    3.6204   -1.7895 H   0  0  0  0  0  0  0  0  0  0  0  0
    3.0503    4.2453   -0.2807 H   0  0  0  0  0  0  0  0  0  0  0  0
    2.5982    2.6924   -0.5055 H   0  0  0  0  0  0  0  0  0  0  0  0
  1  5  1  0
  5  8  1  0
  1  2  1  0
  1  3  1  0
  1  4  1  0
  5  6  1  0
  5  7  1  0
  8  9  1  0
  8 10  1  0
  8 11  1  0
 12 16  1  0
 16 17  1  0
 12 13  1  0
 12 14  1  0
 12 15  1  0
 17 18  1  0
 17 19  1  0
 17 20  1  0
M  CHG  1   8   1
M  END
>  <PDB_ID>  (833) 
pdb1z5z

>  <RESIDUE_NAME>  (833) 
LYS   MET

>  <FRAG_NAME>  (833) 
ETAM   MSM

>  <FRAG_ATOM_NUM>  (833) 
fragi: 11  fragj: 9

>  <atom.prop.CHAIN_ID>  (833) 
A A A A A A A A A A A Z Z Z Z Z Z Z Z Z

>  <atom.prop.IS_HEAVY_ATOM>  (833) 
1 0 0 0 1 0 0 1 0 0 0 1 0 0 0 1 1 0 0 0

>  <DIFUSE_FUNC_ATOM>  (833) 
n/a

>  <FINAL_SINGLE_POINT_ENERGY>  (833) 
0

>  <NONCOV_INTER_ENERGY_QM>  (833) 
0

>  <FF_Energy>  (833) 
2.5

>  <QM_Energy>  (833) 
-6.19

>  <source>  (833) 
ETAM_MSM

>  <Index>  (833) 
5125

$$$$
ETAM-pdb1z01-C-LYS-354:MSM-pdb1z01-C-MET-201
     RDKit          3D

 20 18  0  0  0  0  0  0  0  0999 V2000
    1.2469    0.8707   -0.0000 C   0  0  0  0  0  0  0  0  0  0  0  0
    1.2190    1.4620    0.8000 H   0  0  0  0  0  0  0  0  0  0  0  0
    1.2516    1.4146   -0.8322 H   0  0  0  0  0  0  0  0  0  0  0  0
    2.1528    0.2657    0.0357 H   0  0  0  0  0  0  0  0  0  0  0  0
    0.0000    0.0000    0.0000 C   0  0  0  0  0  0  0  0  0  0  0  0
    0.0064   -0.5804   -0.8164 H   0  0  0  0  0  0  0  0  0  0  0  0
    0.0065   -0.5811    0.8164 H   0  0  0  0  0  0  0  0  0  0  0  0
   -1.2469    0.8260   -0.0000 N   0  0  0  0  0  4  0  0  0  0  0  0
   -1.1654    1.5421   -0.6905 H   0  0  0  0  0  0  0  0  0  0  0  0
   -2.0277    0.2407   -0.2106 H   0  0  0  0  0  0  0  0  0  0  0  0
   -1.3671    1.2387    0.9008 H   0  0  0  0  0  0  0  0  0  0  0  0
    0.2089   -2.8160    5.3213 C   0  0  0  0  0  0  0  0  0  0  0  0
    1.0289   -2.1980    5.4453 H   0  0  0  0  0  0  0  0  0  0  0  0
    0.4929   -3.7077    5.7626 H   0  0  0  0  0  0  0  0  0  0  0  0
   -0.6236   -2.4005    5.8891 H   0  0  0  0  0  0  0  0  0  0  0  0
   -0.1196   -3.0730    3.5421 S   0  0  0  0  0  0  0  0  0  0  0  0
   -0.5337   -1.4096    2.9919 C   0  0  0  0  0  0  0  0  0  0  0  0
    0.2243   -1.0409    2.4542 H   0  0  0  0  0  0  0  0  0  0  0  0
   -1.3593   -1.4430    2.4294 H   0  0  0  0  0  0  0  0  0  0  0  0
   -0.6941   -0.8275    3.7882 H   0  0  0  0  0  0  0  0  0  0  0  0
  1  5  1  0
  5  8  1  0
  1  2  1  0
  1  3  1  0
  1  4  1  0
  5  6  1  0
  5  7  1  0
  8  9  1  0
  8 10  1  0
  8 11  1  0
 12 16  1  0
 16 17  1  0
 12 13  1  0
 12 14  1  0
 12 15  1  0
 17 18  1  0
 17 19  1  0
 17 20  1  0
M  CHG  1   8   1
M  END
>  <PDB_ID>  (834) 
pdb1z01

>  <RESIDUE_NAME>  (834) 
LYS   MET

>  <FRAG_NAME>  (834) 
ETAM   MSM

>  <FRAG_ATOM_NUM>  (834) 
fragi: 11  fragj: 9

>  <atom.prop.CHAIN_ID>  (834) 
A A A A A A A A A A A Z Z Z Z Z Z Z Z Z

>  <atom.prop.IS_HEAVY_ATOM>  (834) 
1 0 0 0 1 0 0 1 0 0 0 1 0 0 0 1 1 0 0 0

>  <DIFUSE_FUNC_ATOM>  (834) 
n/a

>  <FINAL_SINGLE_POINT_ENERGY>  (834) 
0

>  <NONCOV_INTER_ENERGY_QM>  (834) 
0

>  <FF_Energy>  (834) 
8.33

>  <QM_Energy>  (834) 
1.45

>  <source>  (834) 
ETAM_MSM

>  <Index>  (834) 
5129

$$$$
ETAM-pdb1z8c-A-LYS-20:MSM-pdb1z8c-A-MET-36
     RDKit          3D

 20 18  0  0  0  0  0  0  0  0999 V2000
    1.2593    0.8577   -0.0000 C   0  0  0  0  0  0  0  0  0  0  0  0
    2.0429    0.2554   -0.0536 H   0  0  0  0  0  0  0  0  0  0  0  0
    1.2716    1.3876    0.8352 H   0  0  0  0  0  0  0  0  0  0  0  0
    1.2454    1.5239   -0.8626 H   0  0  0  0  0  0  0  0  0  0  0  0
    0.0000    0.0000    0.0000 C   0  0  0  0  0  0  0  0  0  0  0  0
    0.0042   -0.5866   -0.8161 H   0  0  0  0  0  0  0  0  0  0  0  0
    0.0036   -0.5868    0.8166 H   0  0  0  0  0  0  0  0  0  0  0  0
   -1.2593    0.8199    0.0000 N   0  0  0  0  0  4  0  0  0  0  0  0
   -1.0558    1.7270   -0.3623 H   0  0  0  0  0  0  0  0  0  0  0  0
   -1.9394    0.3694   -0.5730 H   0  0  0  0  0  0  0  0  0  0  0  0
   -1.5981    0.8947    0.9352 H   0  0  0  0  0  0  0  0  0  0  0  0
    2.4265   -2.9246    3.1546 C   0  0  0  0  0  0  0  0  0  0  0  0
    2.2340   -2.4916    4.0549 H   0  0  0  0  0  0  0  0  0  0  0  0
    3.4374   -3.0151    3.0831 H   0  0  0  0  0  0  0  0  0  0  0  0
    1.9817   -3.9196    3.1411 H   0  0  0  0  0  0  0  0  0  0  0  0
    1.7735   -1.9449    1.8185 S   0  0  0  0  0  0  0  0  0  0  0  0
    1.8480   -3.1769    0.4446 C   0  0  0  0  0  0  0  0  0  0  0  0
    1.3378   -2.8120   -0.3235 H   0  0  0  0  0  0  0  0  0  0  0  0
    2.8011   -3.3117    0.2031 H   0  0  0  0  0  0  0  0  0  0  0  0
    1.4434   -4.0232    0.7675 H   0  0  0  0  0  0  0  0  0  0  0  0
  1  5  1  0
  5  8  1  0
  1  2  1  0
  1  3  1  0
  1  4  1  0
  5  6  1  0
  5  7  1  0
  8  9  1  0
  8 10  1  0
  8 11  1  0
 12 16  1  0
 16 17  1  0
 12 13  1  0
 12 14  1  0
 12 15  1  0
 17 18  1  0
 17 19  1  0
 17 20  1  0
M  CHG  1   8   1
M  END
>  <PDB_ID>  (835) 
pdb1z8c

>  <RESIDUE_NAME>  (835) 
LYS   MET

>  <FRAG_NAME>  (835) 
ETAM   MSM

>  <FRAG_ATOM_NUM>  (835) 
fragi: 11  fragj: 9

>  <atom.prop.CHAIN_ID>  (835) 
A A A A A A A A A A A Z Z Z Z Z Z Z Z Z

>  <atom.prop.IS_HEAVY_ATOM>  (835) 
1 0 0 0 1 0 0 1 0 0 0 1 0 0 0 1 1 0 0 0

>  <DIFUSE_FUNC_ATOM>  (835) 
n/a

>  <FINAL_SINGLE_POINT_ENERGY>  (835) 
0

>  <NONCOV_INTER_ENERGY_QM>  (835) 
0

>  <FF_Energy>  (835) 
1.17

>  <QM_Energy>  (835) 
-7.1

>  <source>  (835) 
ETAM_MSM

>  <Index>  (835) 
5135

$$$$
ETAM-pdb1z90-A-LYS-99:MSM-pdb1z90-A-MET-93
     RDKit          3D

 20 18  0  0  0  0  0  0  0  0999 V2000
    1.1935    1.0011    0.0000 C   0  0  0  0  0  0  0  0  0  0  0  0
    2.0139    0.4850   -0.2125 H   0  0  0  0  0  0  0  0  0  0  0  0
    1.2512    1.3940    0.9090 H   0  0  0  0  0  0  0  0  0  0  0  0
    1.0511    1.7909   -0.7376 H   0  0  0  0  0  0  0  0  0  0  0  0
    0.0000    0.0000    0.0000 C   0  0  0  0  0  0  0  0  0  0  0  0
    0.0498   -0.5274   -0.8161 H   0  0  0  0  0  0  0  0  0  0  0  0
    0.0494   -0.5274    0.8166 H   0  0  0  0  0  0  0  0  0  0  0  0
   -1.1935    0.8526    0.0000 N   0  0  0  0  0  4  0  0  0  0  0  0
   -1.0409    1.6558   -0.5819 H   0  0  0  0  0  0  0  0  0  0  0  0
   -1.9804    0.3392   -0.3524 H   0  0  0  0  0  0  0  0  0  0  0  0
   -1.3952    1.1598    0.9340 H   0  0  0  0  0  0  0  0  0  0  0  0
   -2.8852   -0.9982   -4.3238 C   0  0  0  0  0  0  0  0  0  0  0  0
   -3.5327   -1.7469   -4.6296 H   0  0  0  0  0  0  0  0  0  0  0  0
   -1.9484   -1.4342   -4.3897 H   0  0  0  0  0  0  0  0  0  0  0  0
   -2.9321   -0.1972   -5.0617 H   0  0  0  0  0  0  0  0  0  0  0  0
   -3.2405   -0.4934   -2.6343 S   0  0  0  0  0  0  0  0  0  0  0  0
   -5.0018   -0.1111   -2.7197 C   0  0  0  0  0  0  0  0  0  0  0  0
   -5.4471   -0.4248   -1.8830 H   0  0  0  0  0  0  0  0  0  0  0  0
   -5.1201    0.8759   -2.8144 H   0  0  0  0  0  0  0  0  0  0  0  0
   -5.4020   -0.5755   -3.5086 H   0  0  0  0  0  0  0  0  0  0  0  0
  1  5  1  0
  5  8  1  0
  1  2  1  0
  1  3  1  0
  1  4  1  0
  5  6  1  0
  5  7  1  0
  8  9  1  0
  8 10  1  0
  8 11  1  0
 12 16  1  0
 16 17  1  0
 12 13  1  0
 12 14  1  0
 12 15  1  0
 17 18  1  0
 17 19  1  0
 17 20  1  0
M  CHG  1   8   1
M  END
>  <PDB_ID>  (836) 
pdb1z90

>  <RESIDUE_NAME>  (836) 
LYS   MET

>  <FRAG_NAME>  (836) 
ETAM   MSM

>  <FRAG_ATOM_NUM>  (836) 
fragi: 11  fragj: 9

>  <atom.prop.CHAIN_ID>  (836) 
A A A A A A A A A A A Z Z Z Z Z Z Z Z Z

>  <atom.prop.IS_HEAVY_ATOM>  (836) 
1 0 0 0 1 0 0 1 0 0 0 1 0 0 0 1 1 0 0 0

>  <DIFUSE_FUNC_ATOM>  (836) 
n/a

>  <FINAL_SINGLE_POINT_ENERGY>  (836) 
0

>  <NONCOV_INTER_ENERGY_QM>  (836) 
0

>  <FF_Energy>  (836) 
-5.5

>  <QM_Energy>  (836) 
-13.0

>  <source>  (836) 
ETAM_MSM

>  <Index>  (836) 
5138

$$$$
ETAM-pdb1z6o-A-LYS-77:MSM-pdb1z6o-M-MET-72
     RDKit          3D

 20 18  0  0  0  0  0  0  0  0999 V2000
    1.2367    0.8954   -0.0000 C   0  0  0  0  0  0  0  0  0  0  0  0
    1.1076    1.6053    0.6739 H   0  0  0  0  0  0  0  0  0  0  0  0
    1.3492    1.2702   -0.9064 H   0  0  0  0  0  0  0  0  0  0  0  0
    2.1139    0.3030    0.2606 H   0  0  0  0  0  0  0  0  0  0  0  0
    0.0000    0.0000    0.0000 C   0  0  0  0  0  0  0  0  0  0  0  0
    0.0274   -0.5806   -0.8157 H   0  0  0  0  0  0  0  0  0  0  0  0
    0.0269   -0.5808    0.8167 H   0  0  0  0  0  0  0  0  0  0  0  0
   -1.2367    0.8003    0.0000 N   0  0  0  0  0  4  0  0  0  0  0  0
   -1.5586    0.9280   -0.9408 H   0  0  0  0  0  0  0  0  0  0  0  0
   -1.9459    0.3296    0.5291 H   0  0  0  0  0  0  0  0  0  0  0  0
   -1.0601    1.6972    0.4116 H   0  0  0  0  0  0  0  0  0  0  0  0
   -3.6283    2.9291   -2.9868 C   0  0  0  0  0  0  0  0  0  0  0  0
   -2.7601    3.4469   -3.2101 H   0  0  0  0  0  0  0  0  0  0  0  0
   -4.3438    3.6703   -2.8803 H   0  0  0  0  0  0  0  0  0  0  0  0
   -3.8934    2.3181   -3.8496 H   0  0  0  0  0  0  0  0  0  0  0  0
   -3.4281    2.0201   -1.4049 S   0  0  0  0  0  0  0  0  0  0  0  0
   -3.2175    0.3022   -1.9785 C   0  0  0  0  0  0  0  0  0  0  0  0
   -2.2722    0.0284   -1.8278 H   0  0  0  0  0  0  0  0  0  0  0  0
   -3.8324   -0.2851   -1.4600 H   0  0  0  0  0  0  0  0  0  0  0  0
   -3.4377    0.2595   -2.9484 H   0  0  0  0  0  0  0  0  0  0  0  0
  1  5  1  0
  5  8  1  0
  1  2  1  0
  1  3  1  0
  1  4  1  0
  5  6  1  0
  5  7  1  0
  8  9  1  0
  8 10  1  0
  8 11  1  0
 12 16  1  0
 16 17  1  0
 12 13  1  0
 12 14  1  0
 12 15  1  0
 17 18  1  0
 17 19  1  0
 17 20  1  0
M  CHG  1   8   1
M  END
>  <PDB_ID>  (837) 
pdb1z6o

>  <RESIDUE_NAME>  (837) 
LYS   MET

>  <FRAG_NAME>  (837) 
ETAM   MSM

>  <FRAG_ATOM_NUM>  (837) 
fragi: 11  fragj: 9

>  <atom.prop.CHAIN_ID>  (837) 
A A A A A A A A A A A Z Z Z Z Z Z Z Z Z

>  <atom.prop.IS_HEAVY_ATOM>  (837) 
1 0 0 0 1 0 0 1 0 0 0 1 0 0 0 1 1 0 0 0

>  <DIFUSE_FUNC_ATOM>  (837) 
n/a

>  <FINAL_SINGLE_POINT_ENERGY>  (837) 
0

>  <NONCOV_INTER_ENERGY_QM>  (837) 
0

>  <FF_Energy>  (837) 
8.74

>  <QM_Energy>  (837) 
-1.99

>  <source>  (837) 
ETAM_MSM

>  <Index>  (837) 
5139

$$$$
ETAM-pdb3d2q-A-LYS-235:MSM-pdb3d2q-A-MET-210
     RDKit          3D

 20 18  0  0  0  0  0  0  0  0999 V2000
    1.2619    0.8362    0.0000 C   0  0  0  0  0  0  0  0  0  0  0  0
    1.1610    1.5710    0.6622 H   0  0  0  0  0  0  0  0  0  0  0  0
    1.4007    1.2085   -0.9122 H   0  0  0  0  0  0  0  0  0  0  0  0
    2.1337    0.2406    0.2707 H   0  0  0  0  0  0  0  0  0  0  0  0
    0.0000    0.0000    0.0000 C   0  0  0  0  0  0  0  0  0  0  0  0
   -0.0018   -0.5960   -0.8159 H   0  0  0  0  0  0  0  0  0  0  0  0
   -0.0025   -0.5957    0.8165 H   0  0  0  0  0  0  0  0  0  0  0  0
   -1.2619    0.8137   -0.0000 N   0  0  0  0  0  4  0  0  0  0  0  0
   -1.0250    1.7814   -0.0524 H   0  0  0  0  0  0  0  0  0  0  0  0
   -1.8152    0.5553   -0.7893 H   0  0  0  0  0  0  0  0  0  0  0  0
   -1.7650    0.6324    0.8414 H   0  0  0  0  0  0  0  0  0  0  0  0
    0.8865   -0.3528    3.7532 C   0  0  0  0  0  0  0  0  0  0  0  0
    1.6130    0.2350    3.3703 H   0  0  0  0  0  0  0  0  0  0  0  0
    0.7959   -1.1627    3.1569 H   0  0  0  0  0  0  0  0  0  0  0  0
    1.1870   -0.6793    4.7487 H   0  0  0  0  0  0  0  0  0  0  0  0
   -0.6794    0.5457    3.8582 S   0  0  0  0  0  0  0  0  0  0  0  0
   -1.7925   -0.7985    4.2574 C   0  0  0  0  0  0  0  0  0  0  0  0
   -1.7976   -0.9484    5.2473 H   0  0  0  0  0  0  0  0  0  0  0  0
   -2.7178   -0.5706    3.9521 H   0  0  0  0  0  0  0  0  0  0  0  0
   -1.4889   -1.6346    3.7981 H   0  0  0  0  0  0  0  0  0  0  0  0
  1  5  1  0
  5  8  1  0
  1  2  1  0
  1  3  1  0
  1  4  1  0
  5  6  1  0
  5  7  1  0
  8  9  1  0
  8 10  1  0
  8 11  1  0
 12 16  1  0
 16 17  1  0
 12 13  1  0
 12 14  1  0
 12 15  1  0
 17 18  1  0
 17 19  1  0
 17 20  1  0
M  CHG  1   8   1
M  END
>  <PDB_ID>  (838) 
pdb3d2q

>  <RESIDUE_NAME>  (838) 
LYS   MET

>  <FRAG_NAME>  (838) 
ETAM   MSM

>  <FRAG_ATOM_NUM>  (838) 
fragi: 11  fragj: 9

>  <atom.prop.CHAIN_ID>  (838) 
A A A A A A A A A A A Z Z Z Z Z Z Z Z Z

>  <atom.prop.IS_HEAVY_ATOM>  (838) 
1 0 0 0 1 0 0 1 0 0 0 1 0 0 0 1 1 0 0 0

>  <DIFUSE_FUNC_ATOM>  (838) 
n/a

>  <FINAL_SINGLE_POINT_ENERGY>  (838) 
0

>  <NONCOV_INTER_ENERGY_QM>  (838) 
0

>  <FF_Energy>  (838) 
-4.41

>  <QM_Energy>  (838) 
-10.7

>  <source>  (838) 
ETAM_MSM

>  <Index>  (838) 
5145

$$$$
ETAM-pdb1z6o-B-LYS-77:MSM-pdb1z6o-N-MET-72
     RDKit          3D

 20 18  0  0  0  0  0  0  0  0999 V2000
    1.2368    0.8944    0.0000 C   0  0  0  0  0  0  0  0  0  0  0  0
    1.1075    1.6042    0.6736 H   0  0  0  0  0  0  0  0  0  0  0  0
    1.3497    1.2698   -0.9060 H   0  0  0  0  0  0  0  0  0  0  0  0
    2.1140    0.3024    0.2607 H   0  0  0  0  0  0  0  0  0  0  0  0
    0.0000    0.0000    0.0000 C   0  0  0  0  0  0  0  0  0  0  0  0
    0.0269   -0.5811   -0.8157 H   0  0  0  0  0  0  0  0  0  0  0  0
    0.0260   -0.5809    0.8163 H   0  0  0  0  0  0  0  0  0  0  0  0
   -1.2368    0.8003    0.0000 N   0  0  0  0  0  4  0  0  0  0  0  0
   -2.0179    0.2167   -0.2323 H   0  0  0  0  0  0  0  0  0  0  0  0
   -1.3828    1.1993    0.9078 H   0  0  0  0  0  0  0  0  0  0  0  0
   -1.1639    1.5378   -0.6752 H   0  0  0  0  0  0  0  0  0  0  0  0
   -3.6267    2.9298   -2.9876 C   0  0  0  0  0  0  0  0  0  0  0  0
   -2.7575    3.4466   -3.2103 H   0  0  0  0  0  0  0  0  0  0  0  0
   -4.3413    3.6718   -2.8819 H   0  0  0  0  0  0  0  0  0  0  0  0
   -3.8921    2.3186   -3.8502 H   0  0  0  0  0  0  0  0  0  0  0  0
   -3.4277    2.0205   -1.4058 S   0  0  0  0  0  0  0  0  0  0  0  0
   -3.2175    0.3026   -1.9787 C   0  0  0  0  0  0  0  0  0  0  0  0
   -2.3926    0.2499   -2.5348 H   0  0  0  0  0  0  0  0  0  0  0  0
   -3.1347   -0.2917   -1.1839 H   0  0  0  0  0  0  0  0  0  0  0  0
   -4.0140    0.0458   -2.5190 H   0  0  0  0  0  0  0  0  0  0  0  0
  1  5  1  0
  5  8  1  0
  1  2  1  0
  1  3  1  0
  1  4  1  0
  5  6  1  0
  5  7  1  0
  8  9  1  0
  8 10  1  0
  8 11  1  0
 12 16  1  0
 16 17  1  0
 12 13  1  0
 12 14  1  0
 12 15  1  0
 17 18  1  0
 17 19  1  0
 17 20  1  0
M  CHG  1   8   1
M  END
>  <PDB_ID>  (839) 
pdb1z6o

>  <RESIDUE_NAME>  (839) 
LYS   MET

>  <FRAG_NAME>  (839) 
ETAM   MSM

>  <FRAG_ATOM_NUM>  (839) 
fragi: 11  fragj: 9

>  <atom.prop.CHAIN_ID>  (839) 
A A A A A A A A A A A Z Z Z Z Z Z Z Z Z

>  <atom.prop.IS_HEAVY_ATOM>  (839) 
1 0 0 0 1 0 0 1 0 0 0 1 0 0 0 1 1 0 0 0

>  <DIFUSE_FUNC_ATOM>  (839) 
n/a

>  <FINAL_SINGLE_POINT_ENERGY>  (839) 
0

>  <NONCOV_INTER_ENERGY_QM>  (839) 
0

>  <FF_Energy>  (839) 
5.65

>  <QM_Energy>  (839) 
-4.55

>  <source>  (839) 
ETAM_MSM

>  <Index>  (839) 
5150

$$$$
ETAM-pdb1zbg-A-LYS-20:MSM-pdb1zbg-A-MET-36
     RDKit          3D

 20 18  0  0  0  0  0  0  0  0999 V2000
    1.2678    0.8646    0.0000 C   0  0  0  0  0  0  0  0  0  0  0  0
    1.3298    1.3254    0.8791 H   0  0  0  0  0  0  0  0  0  0  0  0
    1.1912    1.5281   -0.7356 H   0  0  0  0  0  0  0  0  0  0  0  0
    2.1645    0.2638   -0.1517 H   0  0  0  0  0  0  0  0  0  0  0  0
    0.0000    0.0000    0.0000 C   0  0  0  0  0  0  0  0  0  0  0  0
    0.0160   -0.5928   -0.8159 H   0  0  0  0  0  0  0  0  0  0  0  0
    0.0155   -0.5923    0.8161 H   0  0  0  0  0  0  0  0  0  0  0  0
   -1.2678    0.7955   -0.0000 N   0  0  0  0  0  4  0  0  0  0  0  0
   -2.0013    0.2422    0.3894 H   0  0  0  0  0  0  0  0  0  0  0  0
   -1.1376    1.6189    0.5483 H   0  0  0  0  0  0  0  0  0  0  0  0
   -1.4958    1.0472   -0.9384 H   0  0  0  0  0  0  0  0  0  0  0  0
   -2.5124    4.8198    1.2866 C   0  0  0  0  0  0  0  0  0  0  0  0
   -2.6901    5.4490    0.4979 H   0  0  0  0  0  0  0  0  0  0  0  0
   -2.7526    5.3569    2.1262 H   0  0  0  0  0  0  0  0  0  0  0  0
   -3.1998    3.9772    1.2118 H   0  0  0  0  0  0  0  0  0  0  0  0
   -0.8205    4.2866    1.3215 S   0  0  0  0  0  0  0  0  0  0  0  0
   -0.5714    3.7552   -0.3969 C   0  0  0  0  0  0  0  0  0  0  0  0
   -0.3722    4.5556   -0.9570 H   0  0  0  0  0  0  0  0  0  0  0  0
    0.1940    3.1167   -0.4304 H   0  0  0  0  0  0  0  0  0  0  0  0
   -1.4023    3.3100   -0.7212 H   0  0  0  0  0  0  0  0  0  0  0  0
  1  5  1  0
  5  8  1  0
  1  2  1  0
  1  3  1  0
  1  4  1  0
  5  6  1  0
  5  7  1  0
  8  9  1  0
  8 10  1  0
  8 11  1  0
 12 16  1  0
 16 17  1  0
 12 13  1  0
 12 14  1  0
 12 15  1  0
 17 18  1  0
 17 19  1  0
 17 20  1  0
M  CHG  1   8   1
M  END
>  <PDB_ID>  (840) 
pdb1zbg

>  <RESIDUE_NAME>  (840) 
LYS   MET

>  <FRAG_NAME>  (840) 
ETAM   MSM

>  <FRAG_ATOM_NUM>  (840) 
fragi: 11  fragj: 9

>  <atom.prop.CHAIN_ID>  (840) 
A A A A A A A A A A A Z Z Z Z Z Z Z Z Z

>  <atom.prop.IS_HEAVY_ATOM>  (840) 
1 0 0 0 1 0 0 1 0 0 0 1 0 0 0 1 1 0 0 0

>  <DIFUSE_FUNC_ATOM>  (840) 
n/a

>  <FINAL_SINGLE_POINT_ENERGY>  (840) 
0

>  <NONCOV_INTER_ENERGY_QM>  (840) 
0

>  <FF_Energy>  (840) 
1.59

>  <QM_Energy>  (840) 
-5.26

>  <source>  (840) 
ETAM_MSM

>  <Index>  (840) 
5158

$$$$
ETAM-pdb1z6o-C-LYS-77:MSM-pdb1z6o-O-MET-72
     RDKit          3D

 20 18  0  0  0  0  0  0  0  0999 V2000
    1.2371    0.8958   -0.0000 C   0  0  0  0  0  0  0  0  0  0  0  0
    1.1073    1.6049    0.6741 H   0  0  0  0  0  0  0  0  0  0  0  0
    1.3497    1.2707   -0.9064 H   0  0  0  0  0  0  0  0  0  0  0  0
    2.1141    0.3032    0.2605 H   0  0  0  0  0  0  0  0  0  0  0  0
    0.0000    0.0000    0.0000 C   0  0  0  0  0  0  0  0  0  0  0  0
    0.0274   -0.5802   -0.8163 H   0  0  0  0  0  0  0  0  0  0  0  0
    0.0269   -0.5802    0.8167 H   0  0  0  0  0  0  0  0  0  0  0  0
   -1.2371    0.8000    0.0000 N   0  0  0  0  0  4  0  0  0  0  0  0
   -2.0102    0.2290   -0.2842 H   0  0  0  0  0  0  0  0  0  0  0  0
   -1.4117    1.1552    0.9209 H   0  0  0  0  0  0  0  0  0  0  0  0
   -1.1446    1.5686   -0.6365 H   0  0  0  0  0  0  0  0  0  0  0  0
   -3.6286    2.9313   -2.9854 C   0  0  0  0  0  0  0  0  0  0  0  0
   -2.7605    3.4484   -3.2083 H   0  0  0  0  0  0  0  0  0  0  0  0
   -4.3440    3.6720   -2.8781 H   0  0  0  0  0  0  0  0  0  0  0  0
   -3.8934    2.3207   -3.8486 H   0  0  0  0  0  0  0  0  0  0  0  0
   -3.4278    2.0204   -1.4038 S   0  0  0  0  0  0  0  0  0  0  0  0
   -3.2173    0.3033   -1.9787 C   0  0  0  0  0  0  0  0  0  0  0  0
   -2.7828    0.3167   -2.8741 H   0  0  0  0  0  0  0  0  0  0  0  0
   -2.6446   -0.1844   -1.3265 H   0  0  0  0  0  0  0  0  0  0  0  0
   -4.1138   -0.1269   -2.0382 H   0  0  0  0  0  0  0  0  0  0  0  0
  1  5  1  0
  5  8  1  0
  1  2  1  0
  1  3  1  0
  1  4  1  0
  5  6  1  0
  5  7  1  0
  8  9  1  0
  8 10  1  0
  8 11  1  0
 12 16  1  0
 16 17  1  0
 12 13  1  0
 12 14  1  0
 12 15  1  0
 17 18  1  0
 17 19  1  0
 17 20  1  0
M  CHG  1   8   1
M  END
>  <PDB_ID>  (841) 
pdb1z6o

>  <RESIDUE_NAME>  (841) 
LYS   MET

>  <FRAG_NAME>  (841) 
ETAM   MSM

>  <FRAG_ATOM_NUM>  (841) 
fragi: 11  fragj: 9

>  <atom.prop.CHAIN_ID>  (841) 
A A A A A A A A A A A Z Z Z Z Z Z Z Z Z

>  <atom.prop.IS_HEAVY_ATOM>  (841) 
1 0 0 0 1 0 0 1 0 0 0 1 0 0 0 1 1 0 0 0

>  <DIFUSE_FUNC_ATOM>  (841) 
n/a

>  <FINAL_SINGLE_POINT_ENERGY>  (841) 
0

>  <NONCOV_INTER_ENERGY_QM>  (841) 
0

>  <FF_Energy>  (841) 
11.59

>  <QM_Energy>  (841) 
1.01

>  <source>  (841) 
ETAM_MSM

>  <Index>  (841) 
5159

$$$$
ETAM-pdb1zbg-B-LYS-120:MSM-pdb1zbg-B-MET-136
     RDKit          3D

 20 18  0  0  0  0  0  0  0  0999 V2000
    1.2847    0.8605    0.0000 C   0  0  0  0  0  0  0  0  0  0  0  0
    2.0183    0.3099   -0.3682 H   0  0  0  0  0  0  0  0  0  0  0  0
    1.4684    1.1293    0.9329 H   0  0  0  0  0  0  0  0  0  0  0  0
    1.1456    1.7473   -0.6183 H   0  0  0  0  0  0  0  0  0  0  0  0
    0.0000    0.0000    0.0000 C   0  0  0  0  0  0  0  0  0  0  0  0
    0.0134   -0.5938   -0.8161 H   0  0  0  0  0  0  0  0  0  0  0  0
    0.0135   -0.5937    0.8168 H   0  0  0  0  0  0  0  0  0  0  0  0
   -1.2847    0.7966    0.0000 N   0  0  0  0  0  4  0  0  0  0  0  0
   -1.0660    1.7564   -0.1508 H   0  0  0  0  0  0  0  0  0  0  0  0
   -1.8703    0.4589   -0.7307 H   0  0  0  0  0  0  0  0  0  0  0  0
   -1.7329    0.6806    0.8813 H   0  0  0  0  0  0  0  0  0  0  0  0
    1.3239   -4.4917    0.5671 C   0  0  0  0  0  0  0  0  0  0  0  0
    1.7604   -4.6168    1.4851 H   0  0  0  0  0  0  0  0  0  0  0  0
    1.3353   -5.4157    0.1251 H   0  0  0  0  0  0  0  0  0  0  0  0
    0.2852   -4.1994    0.7209 H   0  0  0  0  0  0  0  0  0  0  0  0
    2.2611   -3.2929   -0.4304 S   0  0  0  0  0  0  0  0  0  0  0  0
    1.0722   -2.8571   -1.6931 C   0  0  0  0  0  0  0  0  0  0  0  0
    0.3868   -3.5826   -1.7755 H   0  0  0  0  0  0  0  0  0  0  0  0
    0.6172   -1.9994   -1.4461 H   0  0  0  0  0  0  0  0  0  0  0  0
    1.5400   -2.7425   -2.5708 H   0  0  0  0  0  0  0  0  0  0  0  0
  1  5  1  0
  5  8  1  0
  1  2  1  0
  1  3  1  0
  1  4  1  0
  5  6  1  0
  5  7  1  0
  8  9  1  0
  8 10  1  0
  8 11  1  0
 12 16  1  0
 16 17  1  0
 12 13  1  0
 12 14  1  0
 12 15  1  0
 17 18  1  0
 17 19  1  0
 17 20  1  0
M  CHG  1   8   1
M  END
>  <PDB_ID>  (842) 
pdb1zbg

>  <RESIDUE_NAME>  (842) 
LYS   MET

>  <FRAG_NAME>  (842) 
ETAM   MSM

>  <FRAG_ATOM_NUM>  (842) 
fragi: 11  fragj: 9

>  <atom.prop.CHAIN_ID>  (842) 
A A A A A A A A A A A Z Z Z Z Z Z Z Z Z

>  <atom.prop.IS_HEAVY_ATOM>  (842) 
1 0 0 0 1 0 0 1 0 0 0 1 0 0 0 1 1 0 0 0

>  <DIFUSE_FUNC_ATOM>  (842) 
n/a

>  <FINAL_SINGLE_POINT_ENERGY>  (842) 
0

>  <NONCOV_INTER_ENERGY_QM>  (842) 
0

>  <FF_Energy>  (842) 
8.39

>  <QM_Energy>  (842) 
-0.91

>  <source>  (842) 
ETAM_MSM

>  <Index>  (842) 
5162

$$$$
ETAM-pdb3d4j-A-LYS-26:MSM-pdb3d4j-A-MET-215
     RDKit          3D

 20 18  0  0  0  0  0  0  0  0999 V2000
    1.2357    0.8654    0.0000 C   0  0  0  0  0  0  0  0  0  0  0  0
    1.2081    1.4645   -0.8005 H   0  0  0  0  0  0  0  0  0  0  0  0
    2.0415    0.2752   -0.0542 H   0  0  0  0  0  0  0  0  0  0  0  0
    1.3119    1.4815    0.8960 H   0  0  0  0  0  0  0  0  0  0  0  0
    0.0000    0.0000    0.0000 C   0  0  0  0  0  0  0  0  0  0  0  0
    0.0052   -0.5823   -0.8161 H   0  0  0  0  0  0  0  0  0  0  0  0
    0.0043   -0.5824    0.8168 H   0  0  0  0  0  0  0  0  0  0  0  0
   -1.2357    0.8265   -0.0000 N   0  0  0  0  0  4  0  0  0  0  0  0
   -1.9054    0.4229   -0.6228 H   0  0  0  0  0  0  0  0  0  0  0  0
   -1.6152    0.8570    0.9249 H   0  0  0  0  0  0  0  0  0  0  0  0
   -1.0152    1.7542   -0.3016 H   0  0  0  0  0  0  0  0  0  0  0  0
   -2.8709    4.1548    0.3282 C   0  0  0  0  0  0  0  0  0  0  0  0
   -3.5404    3.7472   -0.3165 H   0  0  0  0  0  0  0  0  0  0  0  0
   -2.0492    4.4032   -0.2137 H   0  0  0  0  0  0  0  0  0  0  0  0
   -3.2976    5.0537    0.7734 H   0  0  0  0  0  0  0  0  0  0  0  0
   -2.4306    2.9506    1.6198 S   0  0  0  0  0  0  0  0  0  0  0  0
   -4.0685    2.3820    2.1480 C   0  0  0  0  0  0  0  0  0  0  0  0
   -4.5433    3.1344    2.5997 H   0  0  0  0  0  0  0  0  0  0  0  0
   -4.5840    2.0871    1.3470 H   0  0  0  0  0  0  0  0  0  0  0  0
   -3.9592    1.6194    2.7820 H   0  0  0  0  0  0  0  0  0  0  0  0
  1  5  1  0
  5  8  1  0
  1  2  1  0
  1  3  1  0
  1  4  1  0
  5  6  1  0
  5  7  1  0
  8  9  1  0
  8 10  1  0
  8 11  1  0
 12 16  1  0
 16 17  1  0
 12 13  1  0
 12 14  1  0
 12 15  1  0
 17 18  1  0
 17 19  1  0
 17 20  1  0
M  CHG  1   8   1
M  END
>  <PDB_ID>  (843) 
pdb3d4j

>  <RESIDUE_NAME>  (843) 
LYS   MET

>  <FRAG_NAME>  (843) 
ETAM   MSM

>  <FRAG_ATOM_NUM>  (843) 
fragi: 11  fragj: 9

>  <atom.prop.CHAIN_ID>  (843) 
A A A A A A A A A A A Z Z Z Z Z Z Z Z Z

>  <atom.prop.IS_HEAVY_ATOM>  (843) 
1 0 0 0 1 0 0 1 0 0 0 1 0 0 0 1 1 0 0 0

>  <DIFUSE_FUNC_ATOM>  (843) 
n/a

>  <FINAL_SINGLE_POINT_ENERGY>  (843) 
0

>  <NONCOV_INTER_ENERGY_QM>  (843) 
0

>  <FF_Energy>  (843) 
-1.61

>  <QM_Energy>  (843) 
-9.69

>  <source>  (843) 
ETAM_MSM

>  <Index>  (843) 
5167

$$$$
ETAM-pdb1z6o-D-LYS-77:MSM-pdb1z6o-P-MET-72
     RDKit          3D

 20 18  0  0  0  0  0  0  0  0999 V2000
    1.2365    0.8963   -0.0000 C   0  0  0  0  0  0  0  0  0  0  0  0
    1.1065    1.6052    0.6744 H   0  0  0  0  0  0  0  0  0  0  0  0
    1.3484    1.2706   -0.9061 H   0  0  0  0  0  0  0  0  0  0  0  0
    2.1137    0.3039    0.2602 H   0  0  0  0  0  0  0  0  0  0  0  0
    0.0000    0.0000    0.0000 C   0  0  0  0  0  0  0  0  0  0  0  0
    0.0270   -0.5802   -0.8159 H   0  0  0  0  0  0  0  0  0  0  0  0
    0.0272   -0.5805    0.8164 H   0  0  0  0  0  0  0  0  0  0  0  0
   -1.2365    0.8002   -0.0000 N   0  0  0  0  0  4  0  0  0  0  0  0
   -1.9101    0.3850   -0.6156 H   0  0  0  0  0  0  0  0  0  0  0  0
   -1.6164    0.8367    0.9265 H   0  0  0  0  0  0  0  0  0  0  0  0
   -1.0379    1.7323   -0.3109 H   0  0  0  0  0  0  0  0  0  0  0  0
   -3.6290    2.9307   -2.9852 C   0  0  0  0  0  0  0  0  0  0  0  0
   -2.7605    3.4470   -3.2085 H   0  0  0  0  0  0  0  0  0  0  0  0
   -4.3437    3.6712   -2.8780 H   0  0  0  0  0  0  0  0  0  0  0  0
   -3.8945    2.3202   -3.8482 H   0  0  0  0  0  0  0  0  0  0  0  0
   -3.4287    2.0199   -1.4034 S   0  0  0  0  0  0  0  0  0  0  0  0
   -3.2177    0.3029   -1.9781 C   0  0  0  0  0  0  0  0  0  0  0  0
   -3.9307    0.0982   -2.6430 H   0  0  0  0  0  0  0  0  0  0  0  0
   -2.3194    0.2144   -2.3982 H   0  0  0  0  0  0  0  0  0  0  0  0
   -3.2922   -0.3079   -1.1957 H   0  0  0  0  0  0  0  0  0  0  0  0
  1  5  1  0
  5  8  1  0
  1  2  1  0
  1  3  1  0
  1  4  1  0
  5  6  1  0
  5  7  1  0
  8  9  1  0
  8 10  1  0
  8 11  1  0
 12 16  1  0
 16 17  1  0
 12 13  1  0
 12 14  1  0
 12 15  1  0
 17 18  1  0
 17 19  1  0
 17 20  1  0
M  CHG  1   8   1
M  END
>  <PDB_ID>  (844) 
pdb1z6o

>  <RESIDUE_NAME>  (844) 
LYS   MET

>  <FRAG_NAME>  (844) 
ETAM   MSM

>  <FRAG_ATOM_NUM>  (844) 
fragi: 11  fragj: 9

>  <atom.prop.CHAIN_ID>  (844) 
A A A A A A A A A A A Z Z Z Z Z Z Z Z Z

>  <atom.prop.IS_HEAVY_ATOM>  (844) 
1 0 0 0 1 0 0 1 0 0 0 1 0 0 0 1 1 0 0 0

>  <DIFUSE_FUNC_ATOM>  (844) 
n/a

>  <FINAL_SINGLE_POINT_ENERGY>  (844) 
0

>  <NONCOV_INTER_ENERGY_QM>  (844) 
0

>  <FF_Energy>  (844) 
5.12

>  <QM_Energy>  (844) 
-3.79

>  <source>  (844) 
ETAM_MSM

>  <Index>  (844) 
5168

$$$$
ETAM-pdb3d2q-C-ASP-180:MSM-pdb3d2q-C-MET-222
     RDKit          3D

 20 18  0  0  0  0  0  0  0  0999 V2000
    1.2390    0.8945    0.0000 C   0  0  0  0  0  0  0  0  0  0  0  0
    1.0024    1.7460   -0.4584 H   0  0  0  0  0  0  0  0  0  0  0  0
    1.4891    1.0718    0.9459 H   0  0  0  0  0  0  0  0  0  0  0  0
    2.0891    0.4432   -0.5117 H   0  0  0  0  0  0  0  0  0  0  0  0
    0.0000    0.0000    0.0000 C   0  0  0  0  0  0  0  0  0  0  0  0
   -0.0464   -0.5786   -0.8114 H   0  0  0  0  0  0  0  0  0  0  0  0
   -0.0026   -0.6537    0.8723 H   0  0  0  0  0  0  0  0  0  0  0  0
   -1.2390    0.8287    0.0000 N   0  0  0  0  0  4  0  0  0  0  0  0
   -1.9810    0.3072   -0.4134 H   0  0  0  0  0  0  0  0  0  0  0  0
   -1.4746    1.0647    0.9390 H   0  0  0  0  0  0  0  0  0  0  0  0
   -1.0768    1.6599   -0.5260 H   0  0  0  0  0  0  0  0  0  0  0  0
   -0.2277    5.9111    1.7406 C   0  0  0  0  0  0  0  0  0  0  0  0
   -0.8104    5.6123    2.5446 H   0  0  0  0  0  0  0  0  0  0  0  0
   -0.9222    6.1914    1.0226 H   0  0  0  0  0  0  0  0  0  0  0  0
    0.3342    6.7968    2.0372 H   0  0  0  0  0  0  0  0  0  0  0  0
    0.7759    4.5335    1.1426 S   0  0  0  0  0  0  0  0  0  0  0  0
   -0.2143    3.2156    1.8374 C   0  0  0  0  0  0  0  0  0  0  0  0
    0.2613    2.8137    2.6219 H   0  0  0  0  0  0  0  0  0  0  0  0
   -1.0973    3.5799    2.1377 H   0  0  0  0  0  0  0  0  0  0  0  0
   -0.3662    2.5079    1.1454 H   0  0  0  0  0  0  0  0  0  0  0  0
  1  5  1  0
  5  8  1  0
  1  2  1  0
  1  3  1  0
  1  4  1  0
  5  6  1  0
  5  7  1  0
  8  9  1  0
  8 10  1  0
  8 11  1  0
 12 16  1  0
 16 17  1  0
 12 13  1  0
 12 14  1  0
 12 15  1  0
 17 18  1  0
 17 19  1  0
 17 20  1  0
M  CHG  1   8   1
M  END
>  <PDB_ID>  (845) 
pdb3d2q

>  <RESIDUE_NAME>  (845) 
ASP   MET

>  <FRAG_NAME>  (845) 
ETAM   MSM

>  <FRAG_ATOM_NUM>  (845) 
fragi: 11  fragj: 9

>  <atom.prop.CHAIN_ID>  (845) 
A A A A A A A A A A A Z Z Z Z Z Z Z Z Z

>  <atom.prop.IS_HEAVY_ATOM>  (845) 
1 0 0 0 1 0 0 1 0 0 0 1 0 0 0 1 1 0 0 0

>  <DIFUSE_FUNC_ATOM>  (845) 
n/a

>  <FINAL_SINGLE_POINT_ENERGY>  (845) 
0

>  <NONCOV_INTER_ENERGY_QM>  (845) 
0

>  <FF_Energy>  (845) 
6.42

>  <QM_Energy>  (845) 
0.64

>  <source>  (845) 
ETAM_MSM

>  <Index>  (845) 
5169

$$$$
ETAM-pdb1z6o-E-LYS-77:MSM-pdb1z6o-Q-MET-72
     RDKit          3D

 20 18  0  0  0  0  0  0  0  0999 V2000
    1.2364    0.8958    0.0000 C   0  0  0  0  0  0  0  0  0  0  0  0
    1.1066    1.6046    0.6742 H   0  0  0  0  0  0  0  0  0  0  0  0
    1.3494    1.2706   -0.9060 H   0  0  0  0  0  0  0  0  0  0  0  0
    2.1135    0.3034    0.2606 H   0  0  0  0  0  0  0  0  0  0  0  0
    0.0000    0.0000    0.0000 C   0  0  0  0  0  0  0  0  0  0  0  0
    0.0269   -0.5804   -0.8164 H   0  0  0  0  0  0  0  0  0  0  0  0
    0.0266   -0.5798    0.8165 H   0  0  0  0  0  0  0  0  0  0  0  0
   -1.2364    0.8015    0.0000 N   0  0  0  0  0  4  0  0  0  0  0  0
   -1.2078    1.4684   -0.7475 H   0  0  0  0  0  0  0  0  0  0  0  0
   -2.0296    0.2016   -0.1241 H   0  0  0  0  0  0  0  0  0  0  0  0
   -1.3255    1.2878    0.8719 H   0  0  0  0  0  0  0  0  0  0  0  0
   -3.6270    2.9308   -2.9869 C   0  0  0  0  0  0  0  0  0  0  0  0
   -2.7585    3.4473   -3.2104 H   0  0  0  0  0  0  0  0  0  0  0  0
   -4.3413    3.6736   -2.8813 H   0  0  0  0  0  0  0  0  0  0  0  0
   -3.8925    2.3204   -3.8501 H   0  0  0  0  0  0  0  0  0  0  0  0
   -3.4280    2.0221   -1.4048 S   0  0  0  0  0  0  0  0  0  0  0  0
   -3.2175    0.3036   -1.9791 C   0  0  0  0  0  0  0  0  0  0  0  0
   -2.2498    0.1390   -2.1468 H   0  0  0  0  0  0  0  0  0  0  0  0
   -3.5536   -0.3130   -1.2725 H   0  0  0  0  0  0  0  0  0  0  0  0
   -3.7383    0.1813   -2.8190 H   0  0  0  0  0  0  0  0  0  0  0  0
  1  5  1  0
  5  8  1  0
  1  2  1  0
  1  3  1  0
  1  4  1  0
  5  6  1  0
  5  7  1  0
  8  9  1  0
  8 10  1  0
  8 11  1  0
 12 16  1  0
 16 17  1  0
 12 13  1  0
 12 14  1  0
 12 15  1  0
 17 18  1  0
 17 19  1  0
 17 20  1  0
M  CHG  1   8   1
M  END
>  <PDB_ID>  (846) 
pdb1z6o

>  <RESIDUE_NAME>  (846) 
LYS   MET

>  <FRAG_NAME>  (846) 
ETAM   MSM

>  <FRAG_ATOM_NUM>  (846) 
fragi: 11  fragj: 9

>  <atom.prop.CHAIN_ID>  (846) 
A A A A A A A A A A A Z Z Z Z Z Z Z Z Z

>  <atom.prop.IS_HEAVY_ATOM>  (846) 
1 0 0 0 1 0 0 1 0 0 0 1 0 0 0 1 1 0 0 0

>  <DIFUSE_FUNC_ATOM>  (846) 
n/a

>  <FINAL_SINGLE_POINT_ENERGY>  (846) 
0

>  <NONCOV_INTER_ENERGY_QM>  (846) 
0

>  <FF_Energy>  (846) 
5.43

>  <QM_Energy>  (846) 
-6.36

>  <source>  (846) 
ETAM_MSM

>  <Index>  (846) 
5182

$$$$
ETAM-pdb3d5r-A-LYS-95:MSM-pdb3d5r-A-MET-285
     RDKit          3D

 20 18  0  0  0  0  0  0  0  0999 V2000
    1.2574    0.8699    0.0000 C   0  0  0  0  0  0  0  0  0  0  0  0
    1.1050    1.6467   -0.6171 H   0  0  0  0  0  0  0  0  0  0  0  0
    2.0215    0.3221   -0.3498 H   0  0  0  0  0  0  0  0  0  0  0  0
    1.5320    1.2581    0.9808 H   0  0  0  0  0  0  0  0  0  0  0  0
    0.0000    0.0000    0.0000 C   0  0  0  0  0  0  0  0  0  0  0  0
    0.0098   -0.5831   -0.8163 H   0  0  0  0  0  0  0  0  0  0  0  0
    0.0097   -0.5835    0.8162 H   0  0  0  0  0  0  0  0  0  0  0  0
   -1.2574    0.8179   -0.0000 N   0  0  0  0  0  4  0  0  0  0  0  0
   -2.0229    0.2380    0.2689 H   0  0  0  0  0  0  0  0  0  0  0  0
   -1.1570    1.5695    0.6477 H   0  0  0  0  0  0  0  0  0  0  0  0
   -1.4110    1.1797   -0.9173 H   0  0  0  0  0  0  0  0  0  0  0  0
   -2.4041   -3.8933   -1.6706 C   0  0  0  0  0  0  0  0  0  0  0  0
   -1.5694   -3.9123   -2.2813 H   0  0  0  0  0  0  0  0  0  0  0  0
   -3.1565   -3.5279   -2.2795 H   0  0  0  0  0  0  0  0  0  0  0  0
   -2.6523   -4.9223   -1.4108 H   0  0  0  0  0  0  0  0  0  0  0  0
   -2.1345   -2.7880   -0.2565 S   0  0  0  0  0  0  0  0  0  0  0  0
   -3.5967   -3.0671    0.7111 C   0  0  0  0  0  0  0  0  0  0  0  0
   -4.2029   -2.2696    0.6548 H   0  0  0  0  0  0  0  0  0  0  0  0
   -4.0867   -3.8734    0.3689 H   0  0  0  0  0  0  0  0  0  0  0  0
   -3.3488   -3.2206    1.6712 H   0  0  0  0  0  0  0  0  0  0  0  0
  1  5  1  0
  5  8  1  0
  1  2  1  0
  1  3  1  0
  1  4  1  0
  5  6  1  0
  5  7  1  0
  8  9  1  0
  8 10  1  0
  8 11  1  0
 12 16  1  0
 16 17  1  0
 12 13  1  0
 12 14  1  0
 12 15  1  0
 17 18  1  0
 17 19  1  0
 17 20  1  0
M  CHG  1   8   1
M  END
>  <PDB_ID>  (847) 
pdb3d5r

>  <RESIDUE_NAME>  (847) 
LYS   MET

>  <FRAG_NAME>  (847) 
ETAM   MSM

>  <FRAG_ATOM_NUM>  (847) 
fragi: 11  fragj: 9

>  <atom.prop.CHAIN_ID>  (847) 
A A A A A A A A A A A Z Z Z Z Z Z Z Z Z

>  <atom.prop.IS_HEAVY_ATOM>  (847) 
1 0 0 0 1 0 0 1 0 0 0 1 0 0 0 1 1 0 0 0

>  <DIFUSE_FUNC_ATOM>  (847) 
n/a

>  <FINAL_SINGLE_POINT_ENERGY>  (847) 
0

>  <NONCOV_INTER_ENERGY_QM>  (847) 
0

>  <FF_Energy>  (847) 
-5.06

>  <QM_Energy>  (847) 
-11.29

>  <source>  (847) 
ETAM_MSM

>  <Index>  (847) 
5186

$$$$
ETAM-pdb3d6b-C-LYS-167:MSM-pdb3d6b-C-MET-150
     RDKit          3D

 20 18  0  0  0  0  0  0  0  0999 V2000
    1.2771    0.8225    0.0000 C   0  0  0  0  0  0  0  0  0  0  0  0
    1.2718    1.4241    0.7794 H   0  0  0  0  0  0  0  0  0  0  0  0
    1.3399    1.3179   -0.8486 H   0  0  0  0  0  0  0  0  0  0  0  0
    2.1366    0.1569    0.0804 H   0  0  0  0  0  0  0  0  0  0  0  0
    0.0000    0.0000    0.0000 C   0  0  0  0  0  0  0  0  0  0  0  0
    0.0038   -0.6103   -0.8157 H   0  0  0  0  0  0  0  0  0  0  0  0
    0.0035   -0.6105    0.8164 H   0  0  0  0  0  0  0  0  0  0  0  0
   -1.2771    0.7840    0.0000 N   0  0  0  0  0  4  0  0  0  0  0  0
   -1.0748    1.7383    0.2094 H   0  0  0  0  0  0  0  0  0  0  0  0
   -1.7008    0.7182   -0.9010 H   0  0  0  0  0  0  0  0  0  0  0  0
   -1.8910    0.4087    0.6911 H   0  0  0  0  0  0  0  0  0  0  0  0
   -5.8288    2.4645   -1.0811 C   0  0  0  0  0  0  0  0  0  0  0  0
   -6.7277    2.8430   -0.7758 H   0  0  0  0  0  0  0  0  0  0  0  0
   -5.9879    2.0811   -2.0158 H   0  0  0  0  0  0  0  0  0  0  0  0
   -5.1226    3.2903   -1.1665 H   0  0  0  0  0  0  0  0  0  0  0  0
   -5.2504    1.1852    0.0505 S   0  0  0  0  0  0  0  0  0  0  0  0
   -5.3585    2.0540    1.6124 C   0  0  0  0  0  0  0  0  0  0  0  0
   -6.0246    2.7973    1.5380 H   0  0  0  0  0  0  0  0  0  0  0  0
   -5.6486    1.4188    2.3308 H   0  0  0  0  0  0  0  0  0  0  0  0
   -4.4627    2.4336    1.8486 H   0  0  0  0  0  0  0  0  0  0  0  0
  1  5  1  0
  5  8  1  0
  1  2  1  0
  1  3  1  0
  1  4  1  0
  5  6  1  0
  5  7  1  0
  8  9  1  0
  8 10  1  0
  8 11  1  0
 12 16  1  0
 16 17  1  0
 12 13  1  0
 12 14  1  0
 12 15  1  0
 17 18  1  0
 17 19  1  0
 17 20  1  0
M  CHG  1   8   1
M  END
>  <PDB_ID>  (848) 
pdb3d6b

>  <RESIDUE_NAME>  (848) 
LYS   MET

>  <FRAG_NAME>  (848) 
ETAM   MSM

>  <FRAG_ATOM_NUM>  (848) 
fragi: 11  fragj: 9

>  <atom.prop.CHAIN_ID>  (848) 
A A A A A A A A A A A Z Z Z Z Z Z Z Z Z

>  <atom.prop.IS_HEAVY_ATOM>  (848) 
1 0 0 0 1 0 0 1 0 0 0 1 0 0 0 1 1 0 0 0

>  <DIFUSE_FUNC_ATOM>  (848) 
n/a

>  <FINAL_SINGLE_POINT_ENERGY>  (848) 
0

>  <NONCOV_INTER_ENERGY_QM>  (848) 
0

>  <FF_Energy>  (848) 
-3.4

>  <QM_Energy>  (848) 
-8.6

>  <source>  (848) 
ETAM_MSM

>  <Index>  (848) 
5188

$$$$
ETAM-pdb3d53-A-LYS-160:MSM-pdb3d53-A-MET-94
     RDKit          3D

 20 18  0  0  0  0  0  0  0  0999 V2000
    1.2582    0.8692   -0.0000 C   0  0  0  0  0  0  0  0  0  0  0  0
    2.0356    0.2921   -0.2121 H   0  0  0  0  0  0  0  0  0  0  0  0
    1.3538    1.2787    0.8969 H   0  0  0  0  0  0  0  0  0  0  0  0
    1.1784    1.6564   -0.7498 H   0  0  0  0  0  0  0  0  0  0  0  0
    0.0000    0.0000    0.0000 C   0  0  0  0  0  0  0  0  0  0  0  0
    0.0114   -0.5853   -0.8159 H   0  0  0  0  0  0  0  0  0  0  0  0
    0.0112   -0.5857    0.8168 H   0  0  0  0  0  0  0  0  0  0  0  0
   -1.2582    0.8123    0.0000 N   0  0  0  0  0  4  0  0  0  0  0  0
   -2.0426    0.1991    0.0647 H   0  0  0  0  0  0  0  0  0  0  0  0
   -1.2469    1.4323    0.7820 H   0  0  0  0  0  0  0  0  0  0  0  0
   -1.3077    1.3375   -0.8470 H   0  0  0  0  0  0  0  0  0  0  0  0
   -0.3920   -2.1351    4.3738 C   0  0  0  0  0  0  0  0  0  0  0  0
   -0.6558   -2.9062    3.7757 H   0  0  0  0  0  0  0  0  0  0  0  0
   -1.2401   -1.7191    4.7329 H   0  0  0  0  0  0  0  0  0  0  0  0
    0.1991   -2.5165    5.2065 H   0  0  0  0  0  0  0  0  0  0  0  0
    0.5828   -0.9332    3.4778 S   0  0  0  0  0  0  0  0  0  0  0  0
    1.6979   -2.0576    2.6452 C   0  0  0  0  0  0  0  0  0  0  0  0
    2.3768   -2.4017    3.2962 H   0  0  0  0  0  0  0  0  0  0  0  0
    1.1800   -2.8283    2.2687 H   0  0  0  0  0  0  0  0  0  0  0  0
    2.1663   -1.5780    1.9012 H   0  0  0  0  0  0  0  0  0  0  0  0
  1  5  1  0
  5  8  1  0
  1  2  1  0
  1  3  1  0
  1  4  1  0
  5  6  1  0
  5  7  1  0
  8  9  1  0
  8 10  1  0
  8 11  1  0
 12 16  1  0
 16 17  1  0
 12 13  1  0
 12 14  1  0
 12 15  1  0
 17 18  1  0
 17 19  1  0
 17 20  1  0
M  CHG  1   8   1
M  END
>  <PDB_ID>  (849) 
pdb3d53

>  <RESIDUE_NAME>  (849) 
LYS   MET

>  <FRAG_NAME>  (849) 
ETAM   MSM

>  <FRAG_ATOM_NUM>  (849) 
fragi: 11  fragj: 9

>  <atom.prop.CHAIN_ID>  (849) 
A A A A A A A A A A A Z Z Z Z Z Z Z Z Z

>  <atom.prop.IS_HEAVY_ATOM>  (849) 
1 0 0 0 1 0 0 1 0 0 0 1 0 0 0 1 1 0 0 0

>  <DIFUSE_FUNC_ATOM>  (849) 
n/a

>  <FINAL_SINGLE_POINT_ENERGY>  (849) 
0

>  <NONCOV_INTER_ENERGY_QM>  (849) 
0

>  <FF_Energy>  (849) 
-3.45

>  <QM_Energy>  (849) 
-8.69

>  <source>  (849) 
ETAM_MSM

>  <Index>  (849) 
5193

$$$$
ETAM-pdb3d4j-B-LYS-26:MSM-pdb3d4j-B-MET-215
     RDKit          3D

 20 18  0  0  0  0  0  0  0  0999 V2000
    1.2402    0.8842   -0.0000 C   0  0  0  0  0  0  0  0  0  0  0  0
    1.2939    1.3523   -0.8752 H   0  0  0  0  0  0  0  0  0  0  0  0
    2.0387    0.3074    0.1352 H   0  0  0  0  0  0  0  0  0  0  0  0
    1.1992    1.6270    0.7966 H   0  0  0  0  0  0  0  0  0  0  0  0
    0.0000    0.0000    0.0000 C   0  0  0  0  0  0  0  0  0  0  0  0
    0.0171   -0.5802   -0.8157 H   0  0  0  0  0  0  0  0  0  0  0  0
    0.0176   -0.5800    0.8161 H   0  0  0  0  0  0  0  0  0  0  0  0
   -1.2402    0.8134    0.0000 N   0  0  0  0  0  4  0  0  0  0  0  0
   -2.0313    0.2160    0.1357 H   0  0  0  0  0  0  0  0  0  0  0  0
   -1.1991    1.4857    0.7402 H   0  0  0  0  0  0  0  0  0  0  0  0
   -1.3284    1.2888   -0.8766 H   0  0  0  0  0  0  0  0  0  0  0  0
   -2.3785    4.8090   -1.0779 C   0  0  0  0  0  0  0  0  0  0  0  0
   -3.0223    4.3710   -1.7198 H   0  0  0  0  0  0  0  0  0  0  0  0
   -1.4555    4.7640   -1.4834 H   0  0  0  0  0  0  0  0  0  0  0  0
   -2.6632    5.8504   -0.9286 H   0  0  0  0  0  0  0  0  0  0  0  0
   -2.4045    3.9514    0.5227 S   0  0  0  0  0  0  0  0  0  0  0  0
   -4.1815    3.6697    0.7631 C   0  0  0  0  0  0  0  0  0  0  0  0
   -4.3241    2.7245    1.0462 H   0  0  0  0  0  0  0  0  0  0  0  0
   -4.5154    4.2914    1.4680 H   0  0  0  0  0  0  0  0  0  0  0  0
   -4.6562    3.8435   -0.0971 H   0  0  0  0  0  0  0  0  0  0  0  0
  1  5  1  0
  5  8  1  0
  1  2  1  0
  1  3  1  0
  1  4  1  0
  5  6  1  0
  5  7  1  0
  8  9  1  0
  8 10  1  0
  8 11  1  0
 12 16  1  0
 16 17  1  0
 12 13  1  0
 12 14  1  0
 12 15  1  0
 17 18  1  0
 17 19  1  0
 17 20  1  0
M  CHG  1   8   1
M  END
>  <PDB_ID>  (850) 
pdb3d4j

>  <RESIDUE_NAME>  (850) 
LYS   MET

>  <FRAG_NAME>  (850) 
ETAM   MSM

>  <FRAG_ATOM_NUM>  (850) 
fragi: 11  fragj: 9

>  <atom.prop.CHAIN_ID>  (850) 
A A A A A A A A A A A Z Z Z Z Z Z Z Z Z

>  <atom.prop.IS_HEAVY_ATOM>  (850) 
1 0 0 0 1 0 0 1 0 0 0 1 0 0 0 1 1 0 0 0

>  <DIFUSE_FUNC_ATOM>  (850) 
n/a

>  <FINAL_SINGLE_POINT_ENERGY>  (850) 
0

>  <NONCOV_INTER_ENERGY_QM>  (850) 
0

>  <FF_Energy>  (850) 
-4.75

>  <QM_Energy>  (850) 
-12.86

>  <source>  (850) 
ETAM_MSM

>  <Index>  (850) 
5194

$$$$
ETAM-pdb1z01-F-LYS-354:MSM-pdb1z01-F-MET-201
     RDKit          3D

 20 18  0  0  0  0  0  0  0  0999 V2000
    1.2568    0.8660    0.0000 C   0  0  0  0  0  0  0  0  0  0  0  0
    1.2666    1.4060    0.8341 H   0  0  0  0  0  0  0  0  0  0  0  0
    1.2311    1.4552   -0.7982 H   0  0  0  0  0  0  0  0  0  0  0  0
    2.1571    0.2527   -0.0373 H   0  0  0  0  0  0  0  0  0  0  0  0
    0.0000    0.0000    0.0000 C   0  0  0  0  0  0  0  0  0  0  0  0
    0.0115   -0.5876   -0.8163 H   0  0  0  0  0  0  0  0  0  0  0  0
    0.0104   -0.5874    0.8163 H   0  0  0  0  0  0  0  0  0  0  0  0
   -1.2568    0.8099    0.0000 N   0  0  0  0  0  4  0  0  0  0  0  0
   -1.2166    1.4794    0.7403 H   0  0  0  0  0  0  0  0  0  0  0  0
   -1.3437    1.2810   -0.8758 H   0  0  0  0  0  0  0  0  0  0  0  0
   -2.0384    0.2035    0.1360 H   0  0  0  0  0  0  0  0  0  0  0  0
    0.2934   -3.3535    4.9691 C   0  0  0  0  0  0  0  0  0  0  0  0
    1.1133   -2.7437    5.1261 H   0  0  0  0  0  0  0  0  0  0  0  0
    0.5785   -4.2697    5.3544 H   0  0  0  0  0  0  0  0  0  0  0  0
   -0.5322   -2.9740    5.5710 H   0  0  0  0  0  0  0  0  0  0  0  0
   -0.0568   -3.4964    3.1869 S   0  0  0  0  0  0  0  0  0  0  0  0
   -0.4995   -1.7957    2.7839 C   0  0  0  0  0  0  0  0  0  0  0  0
   -0.1230   -1.1838    3.4777 H   0  0  0  0  0  0  0  0  0  0  0  0
   -0.1231   -1.5603    1.8886 H   0  0  0  0  0  0  0  0  0  0  0  0
   -1.4951   -1.7097    2.7638 H   0  0  0  0  0  0  0  0  0  0  0  0
  1  5  1  0
  5  8  1  0
  1  2  1  0
  1  3  1  0
  1  4  1  0
  5  6  1  0
  5  7  1  0
  8  9  1  0
  8 10  1  0
  8 11  1  0
 12 16  1  0
 16 17  1  0
 12 13  1  0
 12 14  1  0
 12 15  1  0
 17 18  1  0
 17 19  1  0
 17 20  1  0
M  CHG  1   8   1
M  END
>  <PDB_ID>  (851) 
pdb1z01

>  <RESIDUE_NAME>  (851) 
LYS   MET

>  <FRAG_NAME>  (851) 
ETAM   MSM

>  <FRAG_ATOM_NUM>  (851) 
fragi: 11  fragj: 9

>  <atom.prop.CHAIN_ID>  (851) 
A A A A A A A A A A A Z Z Z Z Z Z Z Z Z

>  <atom.prop.IS_HEAVY_ATOM>  (851) 
1 0 0 0 1 0 0 1 0 0 0 1 0 0 0 1 1 0 0 0

>  <DIFUSE_FUNC_ATOM>  (851) 
n/a

>  <FINAL_SINGLE_POINT_ENERGY>  (851) 
0

>  <NONCOV_INTER_ENERGY_QM>  (851) 
0

>  <FF_Energy>  (851) 
45.91

>  <QM_Energy>  (851) 
4.97

>  <source>  (851) 
ETAM_MSM

>  <Index>  (851) 
5195

$$$$
ETAM-pdb3d79-A-LYS-154:MSM-pdb3d79-A-MET-107
     RDKit          3D

 20 18  0  0  0  0  0  0  0  0999 V2000
    1.2688    0.8585   -0.0000 C   0  0  0  0  0  0  0  0  0  0  0  0
    2.0483    0.2704   -0.1922 H   0  0  0  0  0  0  0  0  0  0  0  0
    1.3654    1.2799    0.8962 H   0  0  0  0  0  0  0  0  0  0  0  0
    1.2326    1.6453   -0.7535 H   0  0  0  0  0  0  0  0  0  0  0  0
    0.0000    0.0000    0.0000 C   0  0  0  0  0  0  0  0  0  0  0  0
    0.0200   -0.5993   -0.8159 H   0  0  0  0  0  0  0  0  0  0  0  0
    0.0196   -0.5991    0.8161 H   0  0  0  0  0  0  0  0  0  0  0  0
   -1.2688    0.7800    0.0000 N   0  0  0  0  0  4  0  0  0  0  0  0
   -1.3465    1.2851    0.8583 H   0  0  0  0  0  0  0  0  0  0  0  0
   -1.2631    1.4211   -0.7670 H   0  0  0  0  0  0  0  0  0  0  0  0
   -2.0417    0.1536   -0.0920 H   0  0  0  0  0  0  0  0  0  0  0  0
   -3.4889    4.4377   -2.1671 C   0  0  0  0  0  0  0  0  0  0  0  0
   -3.5415    4.9023   -1.2551 H   0  0  0  0  0  0  0  0  0  0  0  0
   -4.4528    4.1789   -2.3998 H   0  0  0  0  0  0  0  0  0  0  0  0
   -3.1501    5.1708   -2.8991 H   0  0  0  0  0  0  0  0  0  0  0  0
   -2.4295    2.9811   -2.0911 S   0  0  0  0  0  0  0  0  0  0  0  0
   -2.6643    2.2933   -3.7260 C   0  0  0  0  0  0  0  0  0  0  0  0
   -2.9649    3.0124   -4.3540 H   0  0  0  0  0  0  0  0  0  0  0  0
   -1.8014    1.9059   -4.0554 H   0  0  0  0  0  0  0  0  0  0  0  0
   -3.3586    1.5726   -3.6915 H   0  0  0  0  0  0  0  0  0  0  0  0
  1  5  1  0
  5  8  1  0
  1  2  1  0
  1  3  1  0
  1  4  1  0
  5  6  1  0
  5  7  1  0
  8  9  1  0
  8 10  1  0
  8 11  1  0
 12 16  1  0
 16 17  1  0
 12 13  1  0
 12 14  1  0
 12 15  1  0
 17 18  1  0
 17 19  1  0
 17 20  1  0
M  CHG  1   8   1
M  END
>  <PDB_ID>  (852) 
pdb3d79

>  <RESIDUE_NAME>  (852) 
LYS   MET

>  <FRAG_NAME>  (852) 
ETAM   MSM

>  <FRAG_ATOM_NUM>  (852) 
fragi: 11  fragj: 9

>  <atom.prop.CHAIN_ID>  (852) 
A A A A A A A A A A A Z Z Z Z Z Z Z Z Z

>  <atom.prop.IS_HEAVY_ATOM>  (852) 
1 0 0 0 1 0 0 1 0 0 0 1 0 0 0 1 1 0 0 0

>  <DIFUSE_FUNC_ATOM>  (852) 
n/a

>  <FINAL_SINGLE_POINT_ENERGY>  (852) 
0

>  <NONCOV_INTER_ENERGY_QM>  (852) 
0

>  <FF_Energy>  (852) 
-5.63

>  <QM_Energy>  (852) 
-13.61

>  <source>  (852) 
ETAM_MSM

>  <Index>  (852) 
5197

$$$$
ETAM-pdb3d5r-B-LYS-95:MSM-pdb3d5r-B-MET-285
     RDKit          3D

 20 18  0  0  0  0  0  0  0  0999 V2000
    1.2577    0.8710    0.0000 C   0  0  0  0  0  0  0  0  0  0  0  0
    1.1011    1.6559   -0.6054 H   0  0  0  0  0  0  0  0  0  0  0  0
    2.0210    0.3283   -0.3618 H   0  0  0  0  0  0  0  0  0  0  0  0
    1.5432    1.2498    0.9813 H   0  0  0  0  0  0  0  0  0  0  0  0
    0.0000    0.0000    0.0000 C   0  0  0  0  0  0  0  0  0  0  0  0
    0.0104   -0.5831   -0.8160 H   0  0  0  0  0  0  0  0  0  0  0  0
    0.0103   -0.5831    0.8164 H   0  0  0  0  0  0  0  0  0  0  0  0
   -1.2577    0.8167   -0.0000 N   0  0  0  0  0  4  0  0  0  0  0  0
   -2.0436    0.2057   -0.0678 H   0  0  0  0  0  0  0  0  0  0  0  0
   -1.3067    1.3392    0.8489 H   0  0  0  0  0  0  0  0  0  0  0  0
   -1.2425    1.4377   -0.7808 H   0  0  0  0  0  0  0  0  0  0  0  0
   -2.6421   -3.7860   -1.5289 C   0  0  0  0  0  0  0  0  0  0  0  0
   -1.7932   -3.8615   -2.1184 H   0  0  0  0  0  0  0  0  0  0  0  0
   -3.3619   -3.4107   -2.1736 H   0  0  0  0  0  0  0  0  0  0  0  0
   -2.9413   -4.7946   -1.2441 H   0  0  0  0  0  0  0  0  0  0  0  0
   -2.3584   -2.6299   -0.1499 S   0  0  0  0  0  0  0  0  0  0  0  0
   -3.8458   -2.8328    0.8164 C   0  0  0  0  0  0  0  0  0  0  0  0
   -3.8393   -3.7293    1.2639 H   0  0  0  0  0  0  0  0  0  0  0  0
   -3.8964   -2.1166    1.5155 H   0  0  0  0  0  0  0  0  0  0  0  0
   -4.6490   -2.7679    0.2205 H   0  0  0  0  0  0  0  0  0  0  0  0
  1  5  1  0
  5  8  1  0
  1  2  1  0
  1  3  1  0
  1  4  1  0
  5  6  1  0
  5  7  1  0
  8  9  1  0
  8 10  1  0
  8 11  1  0
 12 16  1  0
 16 17  1  0
 12 13  1  0
 12 14  1  0
 12 15  1  0
 17 18  1  0
 17 19  1  0
 17 20  1  0
M  CHG  1   8   1
M  END
>  <PDB_ID>  (853) 
pdb3d5r

>  <RESIDUE_NAME>  (853) 
LYS   MET

>  <FRAG_NAME>  (853) 
ETAM   MSM

>  <FRAG_ATOM_NUM>  (853) 
fragi: 11  fragj: 9

>  <atom.prop.CHAIN_ID>  (853) 
A A A A A A A A A A A Z Z Z Z Z Z Z Z Z

>  <atom.prop.IS_HEAVY_ATOM>  (853) 
1 0 0 0 1 0 0 1 0 0 0 1 0 0 0 1 1 0 0 0

>  <DIFUSE_FUNC_ATOM>  (853) 
n/a

>  <FINAL_SINGLE_POINT_ENERGY>  (853) 
0

>  <NONCOV_INTER_ENERGY_QM>  (853) 
0

>  <FF_Energy>  (853) 
-5.33

>  <QM_Energy>  (853) 
-13.05

>  <source>  (853) 
ETAM_MSM

>  <Index>  (853) 
5201

$$$$
ETAM-pdb1zjj-B-LYS-53:MSM-pdb1zjj-B-MET-57
     RDKit          3D

 20 18  0  0  0  0  0  0  0  0999 V2000
    1.2579    0.8706   -0.0000 C   0  0  0  0  0  0  0  0  0  0  0  0
    1.2949    1.3695    0.8542 H   0  0  0  0  0  0  0  0  0  0  0  0
    1.2134    1.4867   -0.7726 H   0  0  0  0  0  0  0  0  0  0  0  0
    2.1522    0.2537   -0.0889 H   0  0  0  0  0  0  0  0  0  0  0  0
    0.0000    0.0000    0.0000 C   0  0  0  0  0  0  0  0  0  0  0  0
    0.0158   -0.5877   -0.8158 H   0  0  0  0  0  0  0  0  0  0  0  0
    0.0150   -0.5880    0.8164 H   0  0  0  0  0  0  0  0  0  0  0  0
   -1.2579    0.8031   -0.0000 N   0  0  0  0  0  4  0  0  0  0  0  0
   -2.0273    0.2098   -0.2337 H   0  0  0  0  0  0  0  0  0  0  0  0
   -1.3989    1.1951    0.9076 H   0  0  0  0  0  0  0  0  0  0  0  0
   -1.1808    1.5357   -0.6749 H   0  0  0  0  0  0  0  0  0  0  0  0
    0.1802   -0.6117    3.7202 C   0  0  0  0  0  0  0  0  0  0  0  0
    1.0936   -0.2396    3.4411 H   0  0  0  0  0  0  0  0  0  0  0  0
   -0.0034   -1.3953    3.0856 H   0  0  0  0  0  0  0  0  0  0  0  0
    0.2601   -0.9995    4.7357 H   0  0  0  0  0  0  0  0  0  0  0  0
   -1.0981    0.6503    3.5613 S   0  0  0  0  0  0  0  0  0  0  0  0
   -2.5750   -0.3718    3.8330 C   0  0  0  0  0  0  0  0  0  0  0  0
   -2.4589   -0.8897    4.6771 H   0  0  0  0  0  0  0  0  0  0  0  0
   -3.3717    0.2236    3.9041 H   0  0  0  0  0  0  0  0  0  0  0  0
   -2.6830   -0.9947    3.0623 H   0  0  0  0  0  0  0  0  0  0  0  0
  1  5  1  0
  5  8  1  0
  1  2  1  0
  1  3  1  0
  1  4  1  0
  5  6  1  0
  5  7  1  0
  8  9  1  0
  8 10  1  0
  8 11  1  0
 12 16  1  0
 16 17  1  0
 12 13  1  0
 12 14  1  0
 12 15  1  0
 17 18  1  0
 17 19  1  0
 17 20  1  0
M  CHG  1   8   1
M  END
>  <PDB_ID>  (854) 
pdb1zjj

>  <RESIDUE_NAME>  (854) 
LYS   MET

>  <FRAG_NAME>  (854) 
ETAM   MSM

>  <FRAG_ATOM_NUM>  (854) 
fragi: 11  fragj: 9

>  <atom.prop.CHAIN_ID>  (854) 
A A A A A A A A A A A Z Z Z Z Z Z Z Z Z

>  <atom.prop.IS_HEAVY_ATOM>  (854) 
1 0 0 0 1 0 0 1 0 0 0 1 0 0 0 1 1 0 0 0

>  <DIFUSE_FUNC_ATOM>  (854) 
n/a

>  <FINAL_SINGLE_POINT_ENERGY>  (854) 
0

>  <NONCOV_INTER_ENERGY_QM>  (854) 
0

>  <FF_Energy>  (854) 
-4.9

>  <QM_Energy>  (854) 
-13.75

>  <source>  (854) 
ETAM_MSM

>  <Index>  (854) 
5211

$$$$
ETAM-pdb1zja-B-LYS-192:MSM-pdb1zja-B-MET-79
     RDKit          3D

 20 18  0  0  0  0  0  0  0  0999 V2000
    1.2644    0.8153   -0.0000 C   0  0  0  0  0  0  0  0  0  0  0  0
    2.0557    0.1980    0.0555 H   0  0  0  0  0  0  0  0  0  0  0  0
    1.2693    1.4168    0.8053 H   0  0  0  0  0  0  0  0  0  0  0  0
    1.3931    1.4406   -0.8834 H   0  0  0  0  0  0  0  0  0  0  0  0
    0.0000    0.0000    0.0000 C   0  0  0  0  0  0  0  0  0  0  0  0
   -0.0066   -0.6058   -0.8157 H   0  0  0  0  0  0  0  0  0  0  0  0
   -0.0069   -0.6066    0.8163 H   0  0  0  0  0  0  0  0  0  0  0  0
   -1.2644    0.8042   -0.0000 N   0  0  0  0  0  4  0  0  0  0  0  0
   -1.5128    1.0216    0.9417 H   0  0  0  0  0  0  0  0  0  0  0  0
   -1.1159    1.6466   -0.5143 H   0  0  0  0  0  0  0  0  0  0  0  0
   -1.9913    0.2700   -0.4276 H   0  0  0  0  0  0  0  0  0  0  0  0
   -3.4593   -2.0273    1.6481 C   0  0  0  0  0  0  0  0  0  0  0  0
   -3.6191   -2.2976    0.6868 H   0  0  0  0  0  0  0  0  0  0  0  0
   -3.7872   -1.0756    1.7565 H   0  0  0  0  0  0  0  0  0  0  0  0
   -4.0136   -2.6883    2.3144 H   0  0  0  0  0  0  0  0  0  0  0  0
   -1.6600   -2.1082    2.0240 S   0  0  0  0  0  0  0  0  0  0  0  0
   -1.3220   -3.6726    1.3986 C   0  0  0  0  0  0  0  0  0  0  0  0
   -0.5914   -4.1351    1.9282 H   0  0  0  0  0  0  0  0  0  0  0  0
   -2.1410   -4.2700    1.4280 H   0  0  0  0  0  0  0  0  0  0  0  0
   -1.0147   -3.6289    0.4337 H   0  0  0  0  0  0  0  0  0  0  0  0
  1  5  1  0
  5  8  1  0
  1  2  1  0
  1  3  1  0
  1  4  1  0
  5  6  1  0
  5  7  1  0
  8  9  1  0
  8 10  1  0
  8 11  1  0
 12 16  1  0
 16 17  1  0
 12 13  1  0
 12 14  1  0
 12 15  1  0
 17 18  1  0
 17 19  1  0
 17 20  1  0
M  CHG  1   8   1
M  END
>  <PDB_ID>  (855) 
pdb1zja

>  <RESIDUE_NAME>  (855) 
LYS   MET

>  <FRAG_NAME>  (855) 
ETAM   MSM

>  <FRAG_ATOM_NUM>  (855) 
fragi: 11  fragj: 9

>  <atom.prop.CHAIN_ID>  (855) 
A A A A A A A A A A A Z Z Z Z Z Z Z Z Z

>  <atom.prop.IS_HEAVY_ATOM>  (855) 
1 0 0 0 1 0 0 1 0 0 0 1 0 0 0 1 1 0 0 0

>  <DIFUSE_FUNC_ATOM>  (855) 
n/a

>  <FINAL_SINGLE_POINT_ENERGY>  (855) 
0

>  <NONCOV_INTER_ENERGY_QM>  (855) 
0

>  <FF_Energy>  (855) 
-2.3

>  <QM_Energy>  (855) 
-8.51

>  <source>  (855) 
ETAM_MSM

>  <Index>  (855) 
5215

$$$$
ETAM-pdb1zgr-B-LYS-22:MSM-pdb1zgr-B-MET-5
     RDKit          3D

 20 18  0  0  0  0  0  0  0  0999 V2000
    1.2186    0.9056   -0.0000 C   0  0  0  0  0  0  0  0  0  0  0  0
    1.1960    1.4624    0.8047 H   0  0  0  0  0  0  0  0  0  0  0  0
    1.2223    1.4261   -0.8287 H   0  0  0  0  0  0  0  0  0  0  0  0
    2.0946    0.2576    0.0293 H   0  0  0  0  0  0  0  0  0  0  0  0
    0.0000    0.0000    0.0000 C   0  0  0  0  0  0  0  0  0  0  0  0
    0.0296   -0.5752   -0.8162 H   0  0  0  0  0  0  0  0  0  0  0  0
    0.0296   -0.5754    0.8165 H   0  0  0  0  0  0  0  0  0  0  0  0
   -1.2186    0.8050   -0.0000 N   0  0  0  0  0  4  0  0  0  0  0  0
   -2.0264    0.2086    0.0203 H   0  0  0  0  0  0  0  0  0  0  0  0
   -1.2375    1.4029    0.8061 H   0  0  0  0  0  0  0  0  0  0  0  0
   -1.2561    1.3744   -0.8266 H   0  0  0  0  0  0  0  0  0  0  0  0
   -0.5327    1.6346   -4.6966 C   0  0  0  0  0  0  0  0  0  0  0  0
   -0.8687    2.5498   -4.4102 H   0  0  0  0  0  0  0  0  0  0  0  0
   -1.2948    0.9795   -4.5481 H   0  0  0  0  0  0  0  0  0  0  0  0
   -0.3186    1.6709   -5.7648 H   0  0  0  0  0  0  0  0  0  0  0  0
    0.9269    1.1571   -3.7733 S   0  0  0  0  0  0  0  0  0  0  0  0
    1.8705    2.6934   -3.7174 C   0  0  0  0  0  0  0  0  0  0  0  0
    1.2419    3.4686   -3.7696 H   0  0  0  0  0  0  0  0  0  0  0  0
    2.3846    2.7331   -2.8613 H   0  0  0  0  0  0  0  0  0  0  0  0
    2.5023    2.7200   -4.4909 H   0  0  0  0  0  0  0  0  0  0  0  0
  1  5  1  0
  5  8  1  0
  1  2  1  0
  1  3  1  0
  1  4  1  0
  5  6  1  0
  5  7  1  0
  8  9  1  0
  8 10  1  0
  8 11  1  0
 12 16  1  0
 16 17  1  0
 12 13  1  0
 12 14  1  0
 12 15  1  0
 17 18  1  0
 17 19  1  0
 17 20  1  0
M  CHG  1   8   1
M  END
>  <PDB_ID>  (856) 
pdb1zgr

>  <RESIDUE_NAME>  (856) 
LYS   MET

>  <FRAG_NAME>  (856) 
ETAM   MSM

>  <FRAG_ATOM_NUM>  (856) 
fragi: 11  fragj: 9

>  <atom.prop.CHAIN_ID>  (856) 
A A A A A A A A A A A Z Z Z Z Z Z Z Z Z

>  <atom.prop.IS_HEAVY_ATOM>  (856) 
1 0 0 0 1 0 0 1 0 0 0 1 0 0 0 1 1 0 0 0

>  <DIFUSE_FUNC_ATOM>  (856) 
n/a

>  <FINAL_SINGLE_POINT_ENERGY>  (856) 
0

>  <NONCOV_INTER_ENERGY_QM>  (856) 
0

>  <FF_Energy>  (856) 
-3.71

>  <QM_Energy>  (856) 
-8.76

>  <source>  (856) 
ETAM_MSM

>  <Index>  (856) 
5220

$$$$
ETAM-pdb3dcg-B-LYS-72:MSM-pdb3dcg-B-MET-75
     RDKit          3D

 20 18  0  0  0  0  0  0  0  0999 V2000
    1.2454    0.8707    0.0000 C   0  0  0  0  0  0  0  0  0  0  0  0
    1.4272    1.1672    0.9216 H   0  0  0  0  0  0  0  0  0  0  0  0
    1.1042    1.6290   -0.6115 H   0  0  0  0  0  0  0  0  0  0  0  0
    2.0932    0.2847   -0.3548 H   0  0  0  0  0  0  0  0  0  0  0  0
    0.0000    0.0000    0.0000 C   0  0  0  0  0  0  0  0  0  0  0  0
    0.0108   -0.5839   -0.8164 H   0  0  0  0  0  0  0  0  0  0  0  0
    0.0106   -0.5843    0.8164 H   0  0  0  0  0  0  0  0  0  0  0  0
   -1.2454    0.8159    0.0000 N   0  0  0  0  0  4  0  0  0  0  0  0
   -1.1813    1.5182    0.7089 H   0  0  0  0  0  0  0  0  0  0  0  0
   -1.3572    1.2506   -0.8936 H   0  0  0  0  0  0  0  0  0  0  0  0
   -2.0293    0.2239    0.1855 H   0  0  0  0  0  0  0  0  0  0  0  0
   -0.1717    3.2859   -4.4098 C   0  0  0  0  0  0  0  0  0  0  0  0
   -0.8596    3.6104   -5.0917 H   0  0  0  0  0  0  0  0  0  0  0  0
    0.7186    3.2347   -4.9083 H   0  0  0  0  0  0  0  0  0  0  0  0
   -0.0894    4.0237   -3.6117 H   0  0  0  0  0  0  0  0  0  0  0  0
   -0.6283    1.6852   -3.7578 S   0  0  0  0  0  0  0  0  0  0  0  0
   -0.3958    0.6464   -5.2013 C   0  0  0  0  0  0  0  0  0  0  0  0
   -1.2810    0.4712   -5.6343 H   0  0  0  0  0  0  0  0  0  0  0  0
    0.2074    1.1091   -5.8527 H   0  0  0  0  0  0  0  0  0  0  0  0
    0.0165   -0.2227   -4.9251 H   0  0  0  0  0  0  0  0  0  0  0  0
  1  5  1  0
  5  8  1  0
  1  2  1  0
  1  3  1  0
  1  4  1  0
  5  6  1  0
  5  7  1  0
  8  9  1  0
  8 10  1  0
  8 11  1  0
 12 16  1  0
 16 17  1  0
 12 13  1  0
 12 14  1  0
 12 15  1  0
 17 18  1  0
 17 19  1  0
 17 20  1  0
M  CHG  1   8   1
M  END
>  <PDB_ID>  (857) 
pdb3dcg

>  <RESIDUE_NAME>  (857) 
LYS   MET

>  <FRAG_NAME>  (857) 
ETAM   MSM

>  <FRAG_ATOM_NUM>  (857) 
fragi: 11  fragj: 9

>  <atom.prop.CHAIN_ID>  (857) 
A A A A A A A A A A A Z Z Z Z Z Z Z Z Z

>  <atom.prop.IS_HEAVY_ATOM>  (857) 
1 0 0 0 1 0 0 1 0 0 0 1 0 0 0 1 1 0 0 0

>  <DIFUSE_FUNC_ATOM>  (857) 
n/a

>  <FINAL_SINGLE_POINT_ENERGY>  (857) 
0

>  <NONCOV_INTER_ENERGY_QM>  (857) 
0

>  <FF_Energy>  (857) 
-5.19

>  <QM_Energy>  (857) 
-12.08

>  <source>  (857) 
ETAM_MSM

>  <Index>  (857) 
5228

$$$$
ETAM-pdb3dcg-D-LYS-72:MSM-pdb3dcg-D-MET-75
     RDKit          3D

 20 18  0  0  0  0  0  0  0  0999 V2000
    1.2342    0.8787   -0.0000 C   0  0  0  0  0  0  0  0  0  0  0  0
    1.4575    1.1118    0.9299 H   0  0  0  0  0  0  0  0  0  0  0  0
    1.0566    1.6756   -0.5490 H   0  0  0  0  0  0  0  0  0  0  0  0
    2.0610    0.3186   -0.4368 H   0  0  0  0  0  0  0  0  0  0  0  0
    0.0000    0.0000    0.0000 C   0  0  0  0  0  0  0  0  0  0  0  0
    0.0123   -0.5791   -0.8156 H   0  0  0  0  0  0  0  0  0  0  0  0
    0.0123   -0.5801    0.8166 H   0  0  0  0  0  0  0  0  0  0  0  0
   -1.2342    0.8206    0.0000 N   0  0  0  0  0  4  0  0  0  0  0  0
   -1.6683    0.7723    0.9000 H   0  0  0  0  0  0  0  0  0  0  0  0
   -1.0040    1.7721   -0.2068 H   0  0  0  0  0  0  0  0  0  0  0  0
   -1.8667    0.4734   -0.6933 H   0  0  0  0  0  0  0  0  0  0  0  0
   -0.1248    3.6530   -4.1118 C   0  0  0  0  0  0  0  0  0  0  0  0
   -0.7560    4.0393   -4.8037 H   0  0  0  0  0  0  0  0  0  0  0  0
    0.7954    3.6093   -4.5343 H   0  0  0  0  0  0  0  0  0  0  0  0
   -0.0805    4.3436   -3.2697 H   0  0  0  0  0  0  0  0  0  0  0  0
   -0.6707    2.0256   -3.5662 S   0  0  0  0  0  0  0  0  0  0  0  0
   -0.6224    1.0613   -5.0840 C   0  0  0  0  0  0  0  0  0  0  0  0
   -1.5470    0.9801   -5.4548 H   0  0  0  0  0  0  0  0  0  0  0  0
   -0.0333    1.5197   -5.7495 H   0  0  0  0  0  0  0  0  0  0  0  0
   -0.2593    0.1506   -4.8872 H   0  0  0  0  0  0  0  0  0  0  0  0
  1  5  1  0
  5  8  1  0
  1  2  1  0
  1  3  1  0
  1  4  1  0
  5  6  1  0
  5  7  1  0
  8  9  1  0
  8 10  1  0
  8 11  1  0
 12 16  1  0
 16 17  1  0
 12 13  1  0
 12 14  1  0
 12 15  1  0
 17 18  1  0
 17 19  1  0
 17 20  1  0
M  CHG  1   8   1
M  END
>  <PDB_ID>  (858) 
pdb3dcg

>  <RESIDUE_NAME>  (858) 
LYS   MET

>  <FRAG_NAME>  (858) 
ETAM   MSM

>  <FRAG_ATOM_NUM>  (858) 
fragi: 11  fragj: 9

>  <atom.prop.CHAIN_ID>  (858) 
A A A A A A A A A A A Z Z Z Z Z Z Z Z Z

>  <atom.prop.IS_HEAVY_ATOM>  (858) 
1 0 0 0 1 0 0 1 0 0 0 1 0 0 0 1 1 0 0 0

>  <DIFUSE_FUNC_ATOM>  (858) 
n/a

>  <FINAL_SINGLE_POINT_ENERGY>  (858) 
0

>  <NONCOV_INTER_ENERGY_QM>  (858) 
0

>  <FF_Energy>  (858) 
-5.17

>  <QM_Energy>  (858) 
-11.5

>  <source>  (858) 
ETAM_MSM

>  <Index>  (858) 
5235

$$$$
ETAM-pdb3dem-A-LYS-40:MSM-pdb3dem-A-MET-117
     RDKit          3D

 20 18  0  0  0  0  0  0  0  0999 V2000
    1.2475    0.8770   -0.0000 C   0  0  0  0  0  0  0  0  0  0  0  0
    1.2278    1.4559    0.8084 H   0  0  0  0  0  0  0  0  0  0  0  0
    1.2442    1.4318   -0.8247 H   0  0  0  0  0  0  0  0  0  0  0  0
    2.1588    0.2793    0.0188 H   0  0  0  0  0  0  0  0  0  0  0  0
    0.0000    0.0000    0.0000 C   0  0  0  0  0  0  0  0  0  0  0  0
    0.0095   -0.5785   -0.8167 H   0  0  0  0  0  0  0  0  0  0  0  0
    0.0098   -0.5788    0.8170 H   0  0  0  0  0  0  0  0  0  0  0  0
   -1.2475    0.8249   -0.0000 N   0  0  0  0  0  4  0  0  0  0  0  0
   -1.0140    1.7721   -0.2116 H   0  0  0  0  0  0  0  0  0  0  0  0
   -1.8753    0.4696   -0.6901 H   0  0  0  0  0  0  0  0  0  0  0  0
   -1.6735    0.7755    0.9023 H   0  0  0  0  0  0  0  0  0  0  0  0
   -0.2932   -1.7990   -3.8040 C   0  0  0  0  0  0  0  0  0  0  0  0
    0.6447   -1.6336   -3.4557 H   0  0  0  0  0  0  0  0  0  0  0  0
   -0.4684   -1.1162   -4.5322 H   0  0  0  0  0  0  0  0  0  0  0  0
   -0.3393   -2.7988   -4.2357 H   0  0  0  0  0  0  0  0  0  0  0  0
   -1.4987   -1.6603   -2.4919 S   0  0  0  0  0  0  0  0  0  0  0  0
   -1.1323   -3.2133   -1.6384 C   0  0  0  0  0  0  0  0  0  0  0  0
   -1.5169   -3.9716   -2.1609 H   0  0  0  0  0  0  0  0  0  0  0  0
   -0.1425   -3.3197   -1.5654 H   0  0  0  0  0  0  0  0  0  0  0  0
   -1.5383   -3.1889   -0.7274 H   0  0  0  0  0  0  0  0  0  0  0  0
  1  5  1  0
  5  8  1  0
  1  2  1  0
  1  3  1  0
  1  4  1  0
  5  6  1  0
  5  7  1  0
  8  9  1  0
  8 10  1  0
  8 11  1  0
 12 16  1  0
 16 17  1  0
 12 13  1  0
 12 14  1  0
 12 15  1  0
 17 18  1  0
 17 19  1  0
 17 20  1  0
M  CHG  1   8   1
M  END
>  <PDB_ID>  (859) 
pdb3dem

>  <RESIDUE_NAME>  (859) 
LYS   MET

>  <FRAG_NAME>  (859) 
ETAM   MSM

>  <FRAG_ATOM_NUM>  (859) 
fragi: 11  fragj: 9

>  <atom.prop.CHAIN_ID>  (859) 
A A A A A A A A A A A Z Z Z Z Z Z Z Z Z

>  <atom.prop.IS_HEAVY_ATOM>  (859) 
1 0 0 0 1 0 0 1 0 0 0 1 0 0 0 1 1 0 0 0

>  <DIFUSE_FUNC_ATOM>  (859) 
n/a

>  <FINAL_SINGLE_POINT_ENERGY>  (859) 
0

>  <NONCOV_INTER_ENERGY_QM>  (859) 
0

>  <FF_Energy>  (859) 
-2.43

>  <QM_Energy>  (859) 
-11.49

>  <source>  (859) 
ETAM_MSM

>  <Index>  (859) 
5239

$$$$
ETAM-pdb3dem-B-LYS-40:MSM-pdb3dem-B-MET-117
     RDKit          3D

 20 18  0  0  0  0  0  0  0  0999 V2000
    1.2549    0.8675    0.0000 C   0  0  0  0  0  0  0  0  0  0  0  0
    1.2456    1.4365    0.8143 H   0  0  0  0  0  0  0  0  0  0  0  0
    1.2507    1.4290   -0.8193 H   0  0  0  0  0  0  0  0  0  0  0  0
    2.1586    0.2580    0.0062 H   0  0  0  0  0  0  0  0  0  0  0  0
    0.0000    0.0000    0.0000 C   0  0  0  0  0  0  0  0  0  0  0  0
    0.0074   -0.5832   -0.8166 H   0  0  0  0  0  0  0  0  0  0  0  0
    0.0072   -0.5837    0.8163 H   0  0  0  0  0  0  0  0  0  0  0  0
   -1.2549    0.8200    0.0000 N   0  0  0  0  0  4  0  0  0  0  0  0
   -1.8779    0.4626   -0.6924 H   0  0  0  0  0  0  0  0  0  0  0  0
   -1.6812    0.7642    0.9012 H   0  0  0  0  0  0  0  0  0  0  0  0
   -1.0245    1.7678   -0.2085 H   0  0  0  0  0  0  0  0  0  0  0  0
   -0.3650   -1.7276   -3.7910 C   0  0  0  0  0  0  0  0  0  0  0  0
    0.5868   -1.5473   -3.4724 H   0  0  0  0  0  0  0  0  0  0  0  0
   -0.5587   -1.0424   -4.5208 H   0  0  0  0  0  0  0  0  0  0  0  0
   -0.4088   -2.7271   -4.2237 H   0  0  0  0  0  0  0  0  0  0  0  0
   -1.5309   -1.5696   -2.4417 S   0  0  0  0  0  0  0  0  0  0  0  0
   -1.2002   -3.1374   -1.5987 C   0  0  0  0  0  0  0  0  0  0  0  0
   -0.2152   -3.2951   -1.5785 H   0  0  0  0  0  0  0  0  0  0  0  0
   -1.5548   -3.0878   -0.6671 H   0  0  0  0  0  0  0  0  0  0  0  0
   -1.6522   -3.8765   -2.0951 H   0  0  0  0  0  0  0  0  0  0  0  0
  1  5  1  0
  5  8  1  0
  1  2  1  0
  1  3  1  0
  1  4  1  0
  5  6  1  0
  5  7  1  0
  8  9  1  0
  8 10  1  0
  8 11  1  0
 12 16  1  0
 16 17  1  0
 12 13  1  0
 12 14  1  0
 12 15  1  0
 17 18  1  0
 17 19  1  0
 17 20  1  0
M  CHG  1   8   1
M  END
>  <PDB_ID>  (860) 
pdb3dem

>  <RESIDUE_NAME>  (860) 
LYS   MET

>  <FRAG_NAME>  (860) 
ETAM   MSM

>  <FRAG_ATOM_NUM>  (860) 
fragi: 11  fragj: 9

>  <atom.prop.CHAIN_ID>  (860) 
A A A A A A A A A A A Z Z Z Z Z Z Z Z Z

>  <atom.prop.IS_HEAVY_ATOM>  (860) 
1 0 0 0 1 0 0 1 0 0 0 1 0 0 0 1 1 0 0 0

>  <DIFUSE_FUNC_ATOM>  (860) 
n/a

>  <FINAL_SINGLE_POINT_ENERGY>  (860) 
0

>  <NONCOV_INTER_ENERGY_QM>  (860) 
0

>  <FF_Energy>  (860) 
-1.27

>  <QM_Energy>  (860) 
-11.4

>  <source>  (860) 
ETAM_MSM

>  <Index>  (860) 
5240

$$$$
ETAM-pdb3dg3-A-LYS-160:MSM-pdb3dg3-A-MET-134
     RDKit          3D

 20 18  0  0  0  0  0  0  0  0999 V2000
    1.2444    0.8748   -0.0000 C   0  0  0  0  0  0  0  0  0  0  0  0
    1.1752    1.5216    0.7523 H   0  0  0  0  0  0  0  0  0  0  0  0
    1.2918    1.3549   -0.8684 H   0  0  0  0  0  0  0  0  0  0  0  0
    2.1457    0.2751    0.1272 H   0  0  0  0  0  0  0  0  0  0  0  0
    0.0000    0.0000    0.0000 C   0  0  0  0  0  0  0  0  0  0  0  0
    0.0092   -0.5795   -0.8156 H   0  0  0  0  0  0  0  0  0  0  0  0
    0.0091   -0.5795    0.8162 H   0  0  0  0  0  0  0  0  0  0  0  0
   -1.2444    0.8252    0.0000 N   0  0  0  0  0  4  0  0  0  0  0  0
   -1.8031    0.5781    0.7905 H   0  0  0  0  0  0  0  0  0  0  0  0
   -0.9985    1.7921    0.0502 H   0  0  0  0  0  0  0  0  0  0  0  0
   -1.7552    0.6509   -0.8410 H   0  0  0  0  0  0  0  0  0  0  0  0
   -1.9011   -3.0759   -2.9000 C   0  0  0  0  0  0  0  0  0  0  0  0
   -1.7639   -2.8146   -3.8753 H   0  0  0  0  0  0  0  0  0  0  0  0
   -2.2689   -4.0259   -2.9048 H   0  0  0  0  0  0  0  0  0  0  0  0
   -0.9367   -3.0705   -2.3921 H   0  0  0  0  0  0  0  0  0  0  0  0
   -3.0639   -1.9495   -2.0991 S   0  0  0  0  0  0  0  0  0  0  0  0
   -3.9543   -3.0931   -1.0543 C   0  0  0  0  0  0  0  0  0  0  0  0
   -4.5616   -2.5867   -0.4398 H   0  0  0  0  0  0  0  0  0  0  0  0
   -4.5005   -3.7138   -1.6204 H   0  0  0  0  0  0  0  0  0  0  0  0
   -3.3062   -3.6287   -0.5092 H   0  0  0  0  0  0  0  0  0  0  0  0
  1  5  1  0
  5  8  1  0
  1  2  1  0
  1  3  1  0
  1  4  1  0
  5  6  1  0
  5  7  1  0
  8  9  1  0
  8 10  1  0
  8 11  1  0
 12 16  1  0
 16 17  1  0
 12 13  1  0
 12 14  1  0
 12 15  1  0
 17 18  1  0
 17 19  1  0
 17 20  1  0
M  CHG  1   8   1
M  END
>  <PDB_ID>  (861) 
pdb3dg3

>  <RESIDUE_NAME>  (861) 
LYS   MET

>  <FRAG_NAME>  (861) 
ETAM   MSM

>  <FRAG_ATOM_NUM>  (861) 
fragi: 11  fragj: 9

>  <atom.prop.CHAIN_ID>  (861) 
A A A A A A A A A A A Z Z Z Z Z Z Z Z Z

>  <atom.prop.IS_HEAVY_ATOM>  (861) 
1 0 0 0 1 0 0 1 0 0 0 1 0 0 0 1 1 0 0 0

>  <DIFUSE_FUNC_ATOM>  (861) 
n/a

>  <FINAL_SINGLE_POINT_ENERGY>  (861) 
0

>  <NONCOV_INTER_ENERGY_QM>  (861) 
0

>  <FF_Energy>  (861) 
-4.37

>  <QM_Energy>  (861) 
-10.98

>  <source>  (861) 
ETAM_MSM

>  <Index>  (861) 
5260

$$$$
ETAM-pdb3dmo-B-LYS-11:MSM-pdb3dmo-B-MET-110
     RDKit          3D

 20 18  0  0  0  0  0  0  0  0999 V2000
    1.2199    0.8820   -0.0000 C   0  0  0  0  0  0  0  0  0  0  0  0
    1.9938    0.3631    0.3564 H   0  0  0  0  0  0  0  0  0  0  0  0
    1.0462    1.6739    0.5802 H   0  0  0  0  0  0  0  0  0  0  0  0
    1.4644    1.2298   -1.0037 H   0  0  0  0  0  0  0  0  0  0  0  0
    0.0000    0.0000    0.0000 C   0  0  0  0  0  0  0  0  0  0  0  0
    0.0094   -0.5749   -0.8163 H   0  0  0  0  0  0  0  0  0  0  0  0
    0.0084   -0.5747    0.8160 H   0  0  0  0  0  0  0  0  0  0  0  0
   -1.2199    0.8325    0.0000 N   0  0  0  0  0  4  0  0  0  0  0  0
   -0.9775    1.7866   -0.1865 H   0  0  0  0  0  0  0  0  0  0  0  0
   -1.8502    0.5078   -0.7069 H   0  0  0  0  0  0  0  0  0  0  0  0
   -1.6676    0.7743    0.8937 H   0  0  0  0  0  0  0  0  0  0  0  0
   -3.2293    5.0806   -1.2402 C   0  0  0  0  0  0  0  0  0  0  0  0
   -3.7446    5.0425   -2.1251 H   0  0  0  0  0  0  0  0  0  0  0  0
   -3.1034    6.0765   -1.0363 H   0  0  0  0  0  0  0  0  0  0  0  0
   -3.8636    4.6550   -0.4627 H   0  0  0  0  0  0  0  0  0  0  0  0
   -1.6332    4.2434   -1.3852 S   0  0  0  0  0  0  0  0  0  0  0  0
   -0.7667    4.8780    0.0540 C   0  0  0  0  0  0  0  0  0  0  0  0
   -1.1276    5.7807    0.2897 H   0  0  0  0  0  0  0  0  0  0  0  0
   -0.8995    4.2549    0.8252 H   0  0  0  0  0  0  0  0  0  0  0  0
    0.2092    4.9522   -0.1505 H   0  0  0  0  0  0  0  0  0  0  0  0
  1  5  1  0
  5  8  1  0
  1  2  1  0
  1  3  1  0
  1  4  1  0
  5  6  1  0
  5  7  1  0
  8  9  1  0
  8 10  1  0
  8 11  1  0
 12 16  1  0
 16 17  1  0
 12 13  1  0
 12 14  1  0
 12 15  1  0
 17 18  1  0
 17 19  1  0
 17 20  1  0
M  CHG  1   8   1
M  END
>  <PDB_ID>  (862) 
pdb3dmo

>  <RESIDUE_NAME>  (862) 
LYS   MET

>  <FRAG_NAME>  (862) 
ETAM   MSM

>  <FRAG_ATOM_NUM>  (862) 
fragi: 11  fragj: 9

>  <atom.prop.CHAIN_ID>  (862) 
A A A A A A A A A A A Z Z Z Z Z Z Z Z Z

>  <atom.prop.IS_HEAVY_ATOM>  (862) 
1 0 0 0 1 0 0 1 0 0 0 1 0 0 0 1 1 0 0 0

>  <DIFUSE_FUNC_ATOM>  (862) 
n/a

>  <FINAL_SINGLE_POINT_ENERGY>  (862) 
0

>  <NONCOV_INTER_ENERGY_QM>  (862) 
0

>  <FF_Energy>  (862) 
-4.5

>  <QM_Energy>  (862) 
-11.26

>  <source>  (862) 
ETAM_MSM

>  <Index>  (862) 
5287

$$$$
ETAM-pdb3dnf-A-LYS-256:MSM-pdb3dnf-A-MET-1
     RDKit          3D

 20 18  0  0  0  0  0  0  0  0999 V2000
    1.2532    0.8627   -0.0000 C   0  0  0  0  0  0  0  0  0  0  0  0
    1.1720    1.5394    0.7181 H   0  0  0  0  0  0  0  0  0  0  0  0
    1.3417    1.2926   -0.8870 H   0  0  0  0  0  0  0  0  0  0  0  0
    2.1354    0.2507    0.1878 H   0  0  0  0  0  0  0  0  0  0  0  0
    0.0000    0.0000    0.0000 C   0  0  0  0  0  0  0  0  0  0  0  0
    0.0128   -0.5907   -0.8162 H   0  0  0  0  0  0  0  0  0  0  0  0
    0.0121   -0.5910    0.8164 H   0  0  0  0  0  0  0  0  0  0  0  0
   -1.2532    0.8031   -0.0000 N   0  0  0  0  0  4  0  0  0  0  0  0
   -2.0388    0.1912    0.0847 H   0  0  0  0  0  0  0  0  0  0  0  0
   -1.2395    1.4391    0.7716 H   0  0  0  0  0  0  0  0  0  0  0  0
   -1.3181    1.3154   -0.8554 H   0  0  0  0  0  0  0  0  0  0  0  0
   -3.4777    3.0507    1.5234 C   0  0  0  0  0  0  0  0  0  0  0  0
   -3.4285    2.0205    1.5470 H   0  0  0  0  0  0  0  0  0  0  0  0
   -4.2819    3.2587    0.9107 H   0  0  0  0  0  0  0  0  0  0  0  0
   -3.7195    3.3990    2.5275 H   0  0  0  0  0  0  0  0  0  0  0  0
   -1.9492    3.7477    0.8293 S   0  0  0  0  0  0  0  0  0  0  0  0
   -2.3408    3.7655   -0.9255 C   0  0  0  0  0  0  0  0  0  0  0  0
   -1.8092    3.0590   -1.3922 H   0  0  0  0  0  0  0  0  0  0  0  0
   -3.3170    3.5871   -1.0501 H   0  0  0  0  0  0  0  0  0  0  0  0
   -2.1141    4.6612   -1.3074 H   0  0  0  0  0  0  0  0  0  0  0  0
  1  5  1  0
  5  8  1  0
  1  2  1  0
  1  3  1  0
  1  4  1  0
  5  6  1  0
  5  7  1  0
  8  9  1  0
  8 10  1  0
  8 11  1  0
 12 16  1  0
 16 17  1  0
 12 13  1  0
 12 14  1  0
 12 15  1  0
 17 18  1  0
 17 19  1  0
 17 20  1  0
M  CHG  1   8   1
M  END
>  <PDB_ID>  (863) 
pdb3dnf

>  <RESIDUE_NAME>  (863) 
LYS   MET

>  <FRAG_NAME>  (863) 
ETAM   MSM

>  <FRAG_ATOM_NUM>  (863) 
fragi: 11  fragj: 9

>  <atom.prop.CHAIN_ID>  (863) 
A A A A A A A A A A A Z Z Z Z Z Z Z Z Z

>  <atom.prop.IS_HEAVY_ATOM>  (863) 
1 0 0 0 1 0 0 1 0 0 0 1 0 0 0 1 1 0 0 0

>  <DIFUSE_FUNC_ATOM>  (863) 
n/a

>  <FINAL_SINGLE_POINT_ENERGY>  (863) 
0

>  <NONCOV_INTER_ENERGY_QM>  (863) 
0

>  <FF_Energy>  (863) 
-1.92

>  <QM_Energy>  (863) 
-10.0

>  <source>  (863) 
ETAM_MSM

>  <Index>  (863) 
5290

$$$$
ETAM-pdb1zmd-F-LYS-92:MSM-pdb1zmd-F-MET-89
     RDKit          3D

 20 18  0  0  0  0  0  0  0  0999 V2000
    1.2573    0.8870   -0.0000 C   0  0  0  0  0  0  0  0  0  0  0  0
    1.1708    1.5475    0.7470 H   0  0  0  0  0  0  0  0  0  0  0  0
    1.2914    1.3757   -0.8728 H   0  0  0  0  0  0  0  0  0  0  0  0
    2.1836    0.3272    0.1294 H   0  0  0  0  0  0  0  0  0  0  0  0
    0.0000    0.0000    0.0000 C   0  0  0  0  0  0  0  0  0  0  0  0
    0.0159   -0.5778   -0.8156 H   0  0  0  0  0  0  0  0  0  0  0  0
    0.0162   -0.5774    0.8167 H   0  0  0  0  0  0  0  0  0  0  0  0
   -1.2573    0.8180    0.0000 N   0  0  0  0  0  4  0  0  0  0  0  0
   -1.0828    1.6831    0.4639 H   0  0  0  0  0  0  0  0  0  0  0  0
   -1.5345    0.9891   -0.9429 H   0  0  0  0  0  0  0  0  0  0  0  0
   -1.9732    0.3150    0.4785 H   0  0  0  0  0  0  0  0  0  0  0  0
   -1.6714    0.4306   -4.6606 C   0  0  0  0  0  0  0  0  0  0  0  0
   -1.1926    0.7535   -5.4993 H   0  0  0  0  0  0  0  0  0  0  0  0
   -2.6695    0.4862   -4.8556 H   0  0  0  0  0  0  0  0  0  0  0  0
   -1.4005   -0.6084   -4.4731 H   0  0  0  0  0  0  0  0  0  0  0  0
   -1.2450    1.4825   -3.2460 S   0  0  0  0  0  0  0  0  0  0  0  0
   -1.3652    3.0991   -3.9304 C   0  0  0  0  0  0  0  0  0  0  0  0
   -1.9978    3.1033   -4.7135 H   0  0  0  0  0  0  0  0  0  0  0  0
   -1.7070    3.7483   -3.2415 H   0  0  0  0  0  0  0  0  0  0  0  0
   -0.4640    3.4151   -4.2470 H   0  0  0  0  0  0  0  0  0  0  0  0
  1  5  1  0
  5  8  1  0
  1  2  1  0
  1  3  1  0
  1  4  1  0
  5  6  1  0
  5  7  1  0
  8  9  1  0
  8 10  1  0
  8 11  1  0
 12 16  1  0
 16 17  1  0
 12 13  1  0
 12 14  1  0
 12 15  1  0
 17 18  1  0
 17 19  1  0
 17 20  1  0
M  CHG  1   8   1
M  END
>  <PDB_ID>  (864) 
pdb1zmd

>  <RESIDUE_NAME>  (864) 
LYS   MET

>  <FRAG_NAME>  (864) 
ETAM   MSM

>  <FRAG_ATOM_NUM>  (864) 
fragi: 11  fragj: 9

>  <atom.prop.CHAIN_ID>  (864) 
A A A A A A A A A A A Z Z Z Z Z Z Z Z Z

>  <atom.prop.IS_HEAVY_ATOM>  (864) 
1 0 0 0 1 0 0 1 0 0 0 1 0 0 0 1 1 0 0 0

>  <DIFUSE_FUNC_ATOM>  (864) 
n/a

>  <FINAL_SINGLE_POINT_ENERGY>  (864) 
0

>  <NONCOV_INTER_ENERGY_QM>  (864) 
0

>  <FF_Energy>  (864) 
-6.17

>  <QM_Energy>  (864) 
-16.92

>  <source>  (864) 
ETAM_MSM

>  <Index>  (864) 
5295

$$$$
ETAM-pdb1zmd-G-LYS-92:MSM-pdb1zmd-G-MET-89
     RDKit          3D

 20 18  0  0  0  0  0  0  0  0999 V2000
    1.2550    0.8982    0.0000 C   0  0  0  0  0  0  0  0  0  0  0  0
    1.1752    1.5500    0.7444 H   0  0  0  0  0  0  0  0  0  0  0  0
    1.3051    1.3671   -0.8737 H   0  0  0  0  0  0  0  0  0  0  0  0
    2.1730    0.3272    0.1395 H   0  0  0  0  0  0  0  0  0  0  0  0
    0.0000    0.0000    0.0000 C   0  0  0  0  0  0  0  0  0  0  0  0
    0.0248   -0.5772   -0.8165 H   0  0  0  0  0  0  0  0  0  0  0  0
    0.0246   -0.5774    0.8161 H   0  0  0  0  0  0  0  0  0  0  0  0
   -1.2550    0.8083    0.0000 N   0  0  0  0  0  4  0  0  0  0  0  0
   -1.9154    0.3919   -0.6227 H   0  0  0  0  0  0  0  0  0  0  0  0
   -1.6320    0.8305    0.9245 H   0  0  0  0  0  0  0  0  0  0  0  0
   -1.0482    1.7381   -0.3017 H   0  0  0  0  0  0  0  0  0  0  0  0
   -1.4472    0.5506   -4.8262 C   0  0  0  0  0  0  0  0  0  0  0  0
   -0.8956    0.8959   -5.6113 H   0  0  0  0  0  0  0  0  0  0  0  0
   -2.4244    0.6203   -5.1078 H   0  0  0  0  0  0  0  0  0  0  0  0
   -1.2001   -0.4965   -4.6512 H   0  0  0  0  0  0  0  0  0  0  0  0
   -1.1463    1.5883   -3.3429 S   0  0  0  0  0  0  0  0  0  0  0  0
   -1.3363    3.2775   -4.0352 C   0  0  0  0  0  0  0  0  0  0  0  0
   -0.6630    3.3987   -4.7571 H   0  0  0  0  0  0  0  0  0  0  0  0
   -2.2570    3.3656   -4.3993 H   0  0  0  0  0  0  0  0  0  0  0  0
   -1.1865    3.9348   -3.3047 H   0  0  0  0  0  0  0  0  0  0  0  0
  1  5  1  0
  5  8  1  0
  1  2  1  0
  1  3  1  0
  1  4  1  0
  5  6  1  0
  5  7  1  0
  8  9  1  0
  8 10  1  0
  8 11  1  0
 12 16  1  0
 16 17  1  0
 12 13  1  0
 12 14  1  0
 12 15  1  0
 17 18  1  0
 17 19  1  0
 17 20  1  0
M  CHG  1   8   1
M  END
>  <PDB_ID>  (865) 
pdb1zmd

>  <RESIDUE_NAME>  (865) 
LYS   MET

>  <FRAG_NAME>  (865) 
ETAM   MSM

>  <FRAG_ATOM_NUM>  (865) 
fragi: 11  fragj: 9

>  <atom.prop.CHAIN_ID>  (865) 
A A A A A A A A A A A Z Z Z Z Z Z Z Z Z

>  <atom.prop.IS_HEAVY_ATOM>  (865) 
1 0 0 0 1 0 0 1 0 0 0 1 0 0 0 1 1 0 0 0

>  <DIFUSE_FUNC_ATOM>  (865) 
n/a

>  <FINAL_SINGLE_POINT_ENERGY>  (865) 
0

>  <NONCOV_INTER_ENERGY_QM>  (865) 
0

>  <FF_Energy>  (865) 
-5.73

>  <QM_Energy>  (865) 
-13.77

>  <source>  (865) 
ETAM_MSM

>  <Index>  (865) 
5296

$$$$
ETAM-pdb1zmd-H-LYS-92:MSM-pdb1zmd-H-MET-89
     RDKit          3D

 20 18  0  0  0  0  0  0  0  0999 V2000
    1.2661    0.8765   -0.0000 C   0  0  0  0  0  0  0  0  0  0  0  0
    1.0866    1.6815    0.5586 H   0  0  0  0  0  0  0  0  0  0  0  0
    1.4571    1.1466   -0.9397 H   0  0  0  0  0  0  0  0  0  0  0  0
    2.1344    0.3542    0.4016 H   0  0  0  0  0  0  0  0  0  0  0  0
    0.0000    0.0000    0.0000 C   0  0  0  0  0  0  0  0  0  0  0  0
    0.0089   -0.5783   -0.8158 H   0  0  0  0  0  0  0  0  0  0  0  0
    0.0085   -0.5781    0.8163 H   0  0  0  0  0  0  0  0  0  0  0  0
   -1.2661    0.8262    0.0000 N   0  0  0  0  0  4  0  0  0  0  0  0
   -1.9348    0.3862    0.5927 H   0  0  0  0  0  0  0  0  0  0  0  0
   -1.0532    1.7381    0.3390 H   0  0  0  0  0  0  0  0  0  0  0  0
   -1.6144    0.8782   -0.9312 H   0  0  0  0  0  0  0  0  0  0  0  0
   -1.0730   -0.8609   -4.4759 C   0  0  0  0  0  0  0  0  0  0  0  0
   -0.4077   -0.7883   -5.2418 H   0  0  0  0  0  0  0  0  0  0  0  0
   -2.0009   -0.8565   -4.8915 H   0  0  0  0  0  0  0  0  0  0  0  0
   -0.9190   -1.8109   -3.9641 H   0  0  0  0  0  0  0  0  0  0  0  0
   -0.8785    0.4989   -3.3286 S   0  0  0  0  0  0  0  0  0  0  0  0
   -0.8958    1.9557   -4.5187 C   0  0  0  0  0  0  0  0  0  0  0  0
   -0.3619    2.6753   -4.1047 H   0  0  0  0  0  0  0  0  0  0  0  0
   -0.4952    1.6442   -5.3657 H   0  0  0  0  0  0  0  0  0  0  0  0
   -1.8388    2.2233   -4.6378 H   0  0  0  0  0  0  0  0  0  0  0  0
  1  5  1  0
  5  8  1  0
  1  2  1  0
  1  3  1  0
  1  4  1  0
  5  6  1  0
  5  7  1  0
  8  9  1  0
  8 10  1  0
  8 11  1  0
 12 16  1  0
 16 17  1  0
 12 13  1  0
 12 14  1  0
 12 15  1  0
 17 18  1  0
 17 19  1  0
 17 20  1  0
M  CHG  1   8   1
M  END
>  <PDB_ID>  (866) 
pdb1zmd

>  <RESIDUE_NAME>  (866) 
LYS   MET

>  <FRAG_NAME>  (866) 
ETAM   MSM

>  <FRAG_ATOM_NUM>  (866) 
fragi: 11  fragj: 9

>  <atom.prop.CHAIN_ID>  (866) 
A A A A A A A A A A A Z Z Z Z Z Z Z Z Z

>  <atom.prop.IS_HEAVY_ATOM>  (866) 
1 0 0 0 1 0 0 1 0 0 0 1 0 0 0 1 1 0 0 0

>  <DIFUSE_FUNC_ATOM>  (866) 
n/a

>  <FINAL_SINGLE_POINT_ENERGY>  (866) 
0

>  <NONCOV_INTER_ENERGY_QM>  (866) 
0

>  <FF_Energy>  (866) 
-5.55

>  <QM_Energy>  (866) 
-15.96

>  <source>  (866) 
ETAM_MSM

>  <Index>  (866) 
5297

$$$$
ETAM-pdb3dms-A-LYS-201:MSM-pdb3dms-A-MET-236
     RDKit          3D

 20 18  0  0  0  0  0  0  0  0999 V2000
    1.2598    0.8751   -0.0000 C   0  0  0  0  0  0  0  0  0  0  0  0
    1.0613    1.7096   -0.5075 H   0  0  0  0  0  0  0  0  0  0  0  0
    1.9918    0.3692   -0.4473 H   0  0  0  0  0  0  0  0  0  0  0  0
    1.5794    1.1429    1.0071 H   0  0  0  0  0  0  0  0  0  0  0  0
    0.0000    0.0000    0.0000 C   0  0  0  0  0  0  0  0  0  0  0  0
    0.0129   -0.5828   -0.8165 H   0  0  0  0  0  0  0  0  0  0  0  0
    0.0120   -0.5823    0.8161 H   0  0  0  0  0  0  0  0  0  0  0  0
   -1.2598    0.8150   -0.0000 N   0  0  0  0  0  4  0  0  0  0  0  0
   -1.7099    0.7189    0.8853 H   0  0  0  0  0  0  0  0  0  0  0  0
   -1.0286    1.7720   -0.1619 H   0  0  0  0  0  0  0  0  0  0  0  0
   -1.8618    0.4843   -0.7238 H   0  0  0  0  0  0  0  0  0  0  0  0
    0.6708   -0.6984   -4.6510 C   0  0  0  0  0  0  0  0  0  0  0  0
    1.6464   -0.4656   -4.4340 H   0  0  0  0  0  0  0  0  0  0  0  0
    0.5771   -0.5570   -5.6630 H   0  0  0  0  0  0  0  0  0  0  0  0
    0.5189   -1.7568   -4.4391 H   0  0  0  0  0  0  0  0  0  0  0  0
   -0.4614    0.3686   -3.7455 S   0  0  0  0  0  0  0  0  0  0  0  0
   -1.9194    0.2401   -4.7722 C   0  0  0  0  0  0  0  0  0  0  0  0
   -2.1004   -0.7225   -4.9832 H   0  0  0  0  0  0  0  0  0  0  0  0
   -2.7074    0.6261   -4.2893 H   0  0  0  0  0  0  0  0  0  0  0  0
   -1.7762    0.7432   -5.6264 H   0  0  0  0  0  0  0  0  0  0  0  0
  1  5  1  0
  5  8  1  0
  1  2  1  0
  1  3  1  0
  1  4  1  0
  5  6  1  0
  5  7  1  0
  8  9  1  0
  8 10  1  0
  8 11  1  0
 12 16  1  0
 16 17  1  0
 12 13  1  0
 12 14  1  0
 12 15  1  0
 17 18  1  0
 17 19  1  0
 17 20  1  0
M  CHG  1   8   1
M  END
>  <PDB_ID>  (867) 
pdb3dms

>  <RESIDUE_NAME>  (867) 
LYS   MET

>  <FRAG_NAME>  (867) 
ETAM   MSM

>  <FRAG_ATOM_NUM>  (867) 
fragi: 11  fragj: 9

>  <atom.prop.CHAIN_ID>  (867) 
A A A A A A A A A A A Z Z Z Z Z Z Z Z Z

>  <atom.prop.IS_HEAVY_ATOM>  (867) 
1 0 0 0 1 0 0 1 0 0 0 1 0 0 0 1 1 0 0 0

>  <DIFUSE_FUNC_ATOM>  (867) 
n/a

>  <FINAL_SINGLE_POINT_ENERGY>  (867) 
0

>  <NONCOV_INTER_ENERGY_QM>  (867) 
0

>  <FF_Energy>  (867) 
-5.12

>  <QM_Energy>  (867) 
-11.31

>  <source>  (867) 
ETAM_MSM

>  <Index>  (867) 
5298

$$$$
ETAM-pdb3dhg-B-LYS-256:MSM-pdb3dhg-B-MET-86
     RDKit          3D

 20 18  0  0  0  0  0  0  0  0999 V2000
    1.2344    0.9135    0.0000 C   0  0  0  0  0  0  0  0  0  0  0  0
    2.0280    0.3657    0.2117 H   0  0  0  0  0  0  0  0  0  0  0  0
    1.0947    1.6261    0.6676 H   0  0  0  0  0  0  0  0  0  0  0  0
    1.3666    1.3661   -0.9828 H   0  0  0  0  0  0  0  0  0  0  0  0
    0.0000    0.0000    0.0000 C   0  0  0  0  0  0  0  0  0  0  0  0
    0.0393   -0.5775   -0.8161 H   0  0  0  0  0  0  0  0  0  0  0  0
    0.0384   -0.5776    0.8163 H   0  0  0  0  0  0  0  0  0  0  0  0
   -1.2344    0.7889    0.0000 N   0  0  0  0  0  4  0  0  0  0  0  0
   -2.0311    0.1805    0.0466 H   0  0  0  0  0  0  0  0  0  0  0  0
   -1.2484    1.4040    0.7928 H   0  0  0  0  0  0  0  0  0  0  0  0
   -1.2914    1.3370   -0.8390 H   0  0  0  0  0  0  0  0  0  0  0  0
   -4.6847    2.1194    1.1698 C   0  0  0  0  0  0  0  0  0  0  0  0
   -4.0474    2.8765    1.4652 H   0  0  0  0  0  0  0  0  0  0  0  0
   -4.3279    1.2800    1.6553 H   0  0  0  0  0  0  0  0  0  0  0  0
   -5.6746    2.3414    1.5681 H   0  0  0  0  0  0  0  0  0  0  0  0
   -4.6424    1.9000   -0.6103 S   0  0  0  0  0  0  0  0  0  0  0  0
   -5.2415    3.5282   -1.1093 C   0  0  0  0  0  0  0  0  0  0  0  0
   -4.4628    4.1394   -1.2414 H   0  0  0  0  0  0  0  0  0  0  0  0
   -5.7510    3.4433   -1.9644 H   0  0  0  0  0  0  0  0  0  0  0  0
   -5.8381    3.8924   -0.3954 H   0  0  0  0  0  0  0  0  0  0  0  0
  1  5  1  0
  5  8  1  0
  1  2  1  0
  1  3  1  0
  1  4  1  0
  5  6  1  0
  5  7  1  0
  8  9  1  0
  8 10  1  0
  8 11  1  0
 12 16  1  0
 16 17  1  0
 12 13  1  0
 12 14  1  0
 12 15  1  0
 17 18  1  0
 17 19  1  0
 17 20  1  0
M  CHG  1   8   1
M  END
>  <PDB_ID>  (868) 
pdb3dhg

>  <RESIDUE_NAME>  (868) 
LYS   MET

>  <FRAG_NAME>  (868) 
ETAM   MSM

>  <FRAG_ATOM_NUM>  (868) 
fragi: 11  fragj: 9

>  <atom.prop.CHAIN_ID>  (868) 
A A A A A A A A A A A Z Z Z Z Z Z Z Z Z

>  <atom.prop.IS_HEAVY_ATOM>  (868) 
1 0 0 0 1 0 0 1 0 0 0 1 0 0 0 1 1 0 0 0

>  <DIFUSE_FUNC_ATOM>  (868) 
n/a

>  <FINAL_SINGLE_POINT_ENERGY>  (868) 
0

>  <NONCOV_INTER_ENERGY_QM>  (868) 
0

>  <FF_Energy>  (868) 
-3.89

>  <QM_Energy>  (868) 
-9.55

>  <source>  (868) 
ETAM_MSM

>  <Index>  (868) 
5301

$$$$
ETAM-pdb3dol-A-LYS-46:MSM-pdb3dol-A-MET-41
     RDKit          3D

 20 18  0  0  0  0  0  0  0  0999 V2000
    1.2686    0.8428   -0.0000 C   0  0  0  0  0  0  0  0  0  0  0  0
    2.0527    0.2344    0.1042 H   0  0  0  0  0  0  0  0  0  0  0  0
    1.2269    1.4768    0.7683 H   0  0  0  0  0  0  0  0  0  0  0  0
    1.3849    1.4122   -0.9222 H   0  0  0  0  0  0  0  0  0  0  0  0
    0.0000    0.0000    0.0000 C   0  0  0  0  0  0  0  0  0  0  0  0
    0.0061   -0.5989   -0.8161 H   0  0  0  0  0  0  0  0  0  0  0  0
    0.0064   -0.5993    0.8163 H   0  0  0  0  0  0  0  0  0  0  0  0
   -1.2686    0.7975    0.0000 N   0  0  0  0  0  4  0  0  0  0  0  0
   -1.0469    1.7641   -0.1083 H   0  0  0  0  0  0  0  0  0  0  0  0
   -1.8439    0.4954   -0.7569 H   0  0  0  0  0  0  0  0  0  0  0  0
   -1.7443    0.6544    0.8653 H   0  0  0  0  0  0  0  0  0  0  0  0
   -1.1318    3.0924    3.1293 C   0  0  0  0  0  0  0  0  0  0  0  0
   -0.5228    2.2948    2.9421 H   0  0  0  0  0  0  0  0  0  0  0  0
   -1.0575    3.2773    4.1307 H   0  0  0  0  0  0  0  0  0  0  0  0
   -0.7526    3.9567    2.5840 H   0  0  0  0  0  0  0  0  0  0  0  0
   -2.8553    2.6923    2.6854 S   0  0  0  0  0  0  0  0  0  0  0  0
   -3.0271    0.9845    3.3290 C   0  0  0  0  0  0  0  0  0  0  0  0
   -2.9960    1.0176    4.3220 H   0  0  0  0  0  0  0  0  0  0  0  0
   -3.8986    0.6182    3.0209 H   0  0  0  0  0  0  0  0  0  0  0  0
   -2.2753    0.4381    2.9756 H   0  0  0  0  0  0  0  0  0  0  0  0
  1  5  1  0
  5  8  1  0
  1  2  1  0
  1  3  1  0
  1  4  1  0
  5  6  1  0
  5  7  1  0
  8  9  1  0
  8 10  1  0
  8 11  1  0
 12 16  1  0
 16 17  1  0
 12 13  1  0
 12 14  1  0
 12 15  1  0
 17 18  1  0
 17 19  1  0
 17 20  1  0
M  CHG  1   8   1
M  END
>  <PDB_ID>  (869) 
pdb3dol

>  <RESIDUE_NAME>  (869) 
LYS   MET

>  <FRAG_NAME>  (869) 
ETAM   MSM

>  <FRAG_ATOM_NUM>  (869) 
fragi: 11  fragj: 9

>  <atom.prop.CHAIN_ID>  (869) 
A A A A A A A A A A A Z Z Z Z Z Z Z Z Z

>  <atom.prop.IS_HEAVY_ATOM>  (869) 
1 0 0 0 1 0 0 1 0 0 0 1 0 0 0 1 1 0 0 0

>  <DIFUSE_FUNC_ATOM>  (869) 
n/a

>  <FINAL_SINGLE_POINT_ENERGY>  (869) 
0

>  <NONCOV_INTER_ENERGY_QM>  (869) 
0

>  <FF_Energy>  (869) 
-3.05

>  <QM_Energy>  (869) 
-8.14

>  <source>  (869) 
ETAM_MSM

>  <Index>  (869) 
5305

$$$$
ETAM-pdb3dwv-A-LYS-124:MSM-pdb3dwv-A-MET-9
     RDKit          3D

 20 18  0  0  0  0  0  0  0  0999 V2000
    1.2286    0.9007    0.0000 C   0  0  0  0  0  0  0  0  0  0  0  0
    2.0360    0.3356   -0.1053 H   0  0  0  0  0  0  0  0  0  0  0  0
    1.2544    1.4026    0.8536 H   0  0  0  0  0  0  0  0  0  0  0  0
    1.1852    1.6108   -0.8257 H   0  0  0  0  0  0  0  0  0  0  0  0
    0.0000    0.0000    0.0000 C   0  0  0  0  0  0  0  0  0  0  0  0
    0.0106   -0.5631   -0.8161 H   0  0  0  0  0  0  0  0  0  0  0  0
    0.0103   -0.5633    0.8170 H   0  0  0  0  0  0  0  0  0  0  0  0
   -1.2286    0.8473    0.0000 N   0  0  0  0  0  4  0  0  0  0  0  0
   -1.2283    1.4280    0.8126 H   0  0  0  0  0  0  0  0  0  0  0  0
   -1.2358    1.4171   -0.8208 H   0  0  0  0  0  0  0  0  0  0  0  0
   -2.0349    0.2583    0.0076 H   0  0  0  0  0  0  0  0  0  0  0  0
   -3.5794    0.0919    1.8625 C   0  0  0  0  0  0  0  0  0  0  0  0
   -2.8747    0.7288    2.2528 H   0  0  0  0  0  0  0  0  0  0  0  0
   -3.0718   -0.7762    1.6508 H   0  0  0  0  0  0  0  0  0  0  0  0
   -4.3266   -0.1157    2.6284 H   0  0  0  0  0  0  0  0  0  0  0  0
   -4.2980    0.7860    0.3621 S   0  0  0  0  0  0  0  0  0  0  0  0
   -4.7878    2.4340    0.9207 C   0  0  0  0  0  0  0  0  0  0  0  0
   -4.3002    2.6528    1.7641 H   0  0  0  0  0  0  0  0  0  0  0  0
   -4.5570    3.1010    0.2144 H   0  0  0  0  0  0  0  0  0  0  0  0
   -5.7719    2.4445    1.0867 H   0  0  0  0  0  0  0  0  0  0  0  0
  1  5  1  0
  5  8  1  0
  1  2  1  0
  1  3  1  0
  1  4  1  0
  5  6  1  0
  5  7  1  0
  8  9  1  0
  8 10  1  0
  8 11  1  0
 12 16  1  0
 16 17  1  0
 12 13  1  0
 12 14  1  0
 12 15  1  0
 17 18  1  0
 17 19  1  0
 17 20  1  0
M  CHG  1   8   1
M  END
>  <PDB_ID>  (870) 
pdb3dwv

>  <RESIDUE_NAME>  (870) 
LYS   MET

>  <FRAG_NAME>  (870) 
ETAM   MSM

>  <FRAG_ATOM_NUM>  (870) 
fragi: 11  fragj: 9

>  <atom.prop.CHAIN_ID>  (870) 
A A A A A A A A A A A Z Z Z Z Z Z Z Z Z

>  <atom.prop.IS_HEAVY_ATOM>  (870) 
1 0 0 0 1 0 0 1 0 0 0 1 0 0 0 1 1 0 0 0

>  <DIFUSE_FUNC_ATOM>  (870) 
n/a

>  <FINAL_SINGLE_POINT_ENERGY>  (870) 
0

>  <NONCOV_INTER_ENERGY_QM>  (870) 
0

>  <FF_Energy>  (870) 
-1.65

>  <QM_Energy>  (870) 
-9.24

>  <source>  (870) 
ETAM_MSM

>  <Index>  (870) 
5325

$$$$
ETAM-pdb3dzc-A-LYS-324:MSM-pdb3dzc-A-MET-350
     RDKit          3D

 20 18  0  0  0  0  0  0  0  0999 V2000
    1.2601    0.8897    0.0000 C   0  0  0  0  0  0  0  0  0  0  0  0
    1.1967    1.5140    0.7750 H   0  0  0  0  0  0  0  0  0  0  0  0
    1.2738    1.4049   -0.8529 H   0  0  0  0  0  0  0  0  0  0  0  0
    2.1818    0.3137    0.0823 H   0  0  0  0  0  0  0  0  0  0  0  0
    0.0000    0.0000    0.0000 C   0  0  0  0  0  0  0  0  0  0  0  0
    0.0083   -0.5691   -0.8164 H   0  0  0  0  0  0  0  0  0  0  0  0
    0.0079   -0.5687    0.8160 H   0  0  0  0  0  0  0  0  0  0  0  0
   -1.2601    0.8421    0.0000 N   0  0  0  0  0  4  0  0  0  0  0  0
   -1.5138    1.0352    0.9424 H   0  0  0  0  0  0  0  0  0  0  0  0
   -1.0764    1.6895   -0.4890 H   0  0  0  0  0  0  0  0  0  0  0  0
   -1.9833    0.3321   -0.4544 H   0  0  0  0  0  0  0  0  0  0  0  0
   -2.7119   -1.2970    3.1993 C   0  0  0  0  0  0  0  0  0  0  0  0
   -2.5336   -2.1819    2.6958 H   0  0  0  0  0  0  0  0  0  0  0  0
   -3.3471   -0.7710    2.5772 H   0  0  0  0  0  0  0  0  0  0  0  0
   -3.2430   -1.5257    4.1233 H   0  0  0  0  0  0  0  0  0  0  0  0
   -1.1578   -0.3819    3.4306 S   0  0  0  0  0  0  0  0  0  0  0  0
   -0.2235   -1.5240    4.4266 C   0  0  0  0  0  0  0  0  0  0  0  0
    0.7351   -1.5275    4.1328 H   0  0  0  0  0  0  0  0  0  0  0  0
   -0.2698   -1.2523    5.3909 H   0  0  0  0  0  0  0  0  0  0  0  0
   -0.5993   -2.4488    4.3293 H   0  0  0  0  0  0  0  0  0  0  0  0
  1  5  1  0
  5  8  1  0
  1  2  1  0
  1  3  1  0
  1  4  1  0
  5  6  1  0
  5  7  1  0
  8  9  1  0
  8 10  1  0
  8 11  1  0
 12 16  1  0
 16 17  1  0
 12 13  1  0
 12 14  1  0
 12 15  1  0
 17 18  1  0
 17 19  1  0
 17 20  1  0
M  CHG  1   8   1
M  END
>  <PDB_ID>  (871) 
pdb3dzc

>  <RESIDUE_NAME>  (871) 
LYS   MET

>  <FRAG_NAME>  (871) 
ETAM   MSM

>  <FRAG_ATOM_NUM>  (871) 
fragi: 11  fragj: 9

>  <atom.prop.CHAIN_ID>  (871) 
A A A A A A A A A A A Z Z Z Z Z Z Z Z Z

>  <atom.prop.IS_HEAVY_ATOM>  (871) 
1 0 0 0 1 0 0 1 0 0 0 1 0 0 0 1 1 0 0 0

>  <DIFUSE_FUNC_ATOM>  (871) 
n/a

>  <FINAL_SINGLE_POINT_ENERGY>  (871) 
0

>  <NONCOV_INTER_ENERGY_QM>  (871) 
0

>  <FF_Energy>  (871) 
-4.81

>  <QM_Energy>  (871) 
-11.43

>  <source>  (871) 
ETAM_MSM

>  <Index>  (871) 
5331

$$$$
ETAM-pdb3e0s-B-LYS-355:MSM-pdb3e0s-B-MET-351
     RDKit          3D

 20 18  0  0  0  0  0  0  0  0999 V2000
    1.2326    0.8831   -0.0000 C   0  0  0  0  0  0  0  0  0  0  0  0
    1.2135    1.4562    0.8173 H   0  0  0  0  0  0  0  0  0  0  0  0
    1.2134    1.4581   -0.8160 H   0  0  0  0  0  0  0  0  0  0  0  0
    2.1559    0.3039    0.0007 H   0  0  0  0  0  0  0  0  0  0  0  0
    0.0000    0.0000    0.0000 C   0  0  0  0  0  0  0  0  0  0  0  0
    0.0109   -0.5747   -0.8175 H   0  0  0  0  0  0  0  0  0  0  0  0
    0.0101   -0.5758    0.8152 H   0  0  0  0  0  0  0  0  0  0  0  0
   -1.2326    0.8291   -0.0000 N   0  0  0  0  0  4  0  0  0  0  0  0
   -1.1472    1.5515    0.6863 H   0  0  0  0  0  0  0  0  0  0  0  0
   -1.3580    1.2395   -0.9028 H   0  0  0  0  0  0  0  0  0  0  0  0
   -2.0204    0.2536    0.2167 H   0  0  0  0  0  0  0  0  0  0  0  0
   -1.8461   -2.0158   -4.2000 C   0  0  0  0  0  0  0  0  0  0  0  0
   -2.1137   -2.1390   -5.1993 H   0  0  0  0  0  0  0  0  0  0  0  0
   -2.0894   -2.9342   -3.7733 H   0  0  0  0  0  0  0  0  0  0  0  0
   -0.7615   -1.9137   -4.1623 H   0  0  0  0  0  0  0  0  0  0  0  0
   -2.8086   -0.6836   -3.4395 S   0  0  0  0  0  0  0  0  0  0  0  0
   -2.6271   -1.1150   -1.7280 C   0  0  0  0  0  0  0  0  0  0  0  0
   -2.7864   -0.3088   -1.1512 H   0  0  0  0  0  0  0  0  0  0  0  0
   -3.2888   -1.8282   -1.4808 H   0  0  0  0  0  0  0  0  0  0  0  0
   -1.7001   -1.4592   -1.5558 H   0  0  0  0  0  0  0  0  0  0  0  0
  1  5  1  0
  5  8  1  0
  1  2  1  0
  1  3  1  0
  1  4  1  0
  5  6  1  0
  5  7  1  0
  8  9  1  0
  8 10  1  0
  8 11  1  0
 12 16  1  0
 16 17  1  0
 12 13  1  0
 12 14  1  0
 12 15  1  0
 17 18  1  0
 17 19  1  0
 17 20  1  0
M  CHG  1   8   1
M  END
>  <PDB_ID>  (872) 
pdb3e0s

>  <RESIDUE_NAME>  (872) 
LYS   MET

>  <FRAG_NAME>  (872) 
ETAM   MSM

>  <FRAG_ATOM_NUM>  (872) 
fragi: 11  fragj: 9

>  <atom.prop.CHAIN_ID>  (872) 
A A A A A A A A A A A Z Z Z Z Z Z Z Z Z

>  <atom.prop.IS_HEAVY_ATOM>  (872) 
1 0 0 0 1 0 0 1 0 0 0 1 0 0 0 1 1 0 0 0

>  <DIFUSE_FUNC_ATOM>  (872) 
n/a

>  <FINAL_SINGLE_POINT_ENERGY>  (872) 
0

>  <NONCOV_INTER_ENERGY_QM>  (872) 
0

>  <FF_Energy>  (872) 
6.69

>  <QM_Energy>  (872) 
1.44

>  <source>  (872) 
ETAM_MSM

>  <Index>  (872) 
5333

$$$$
ETAM-pdb3e0c-A-LYS-335:MSM-pdb3e0c-A-MET-350
     RDKit          3D

 20 18  0  0  0  0  0  0  0  0999 V2000
    1.2317    0.8804   -0.0000 C   0  0  0  0  0  0  0  0  0  0  0  0
    1.2148    1.4553    0.8168 H   0  0  0  0  0  0  0  0  0  0  0  0
    1.2133    1.4568   -0.8168 H   0  0  0  0  0  0  0  0  0  0  0  0
    2.1555    0.3020   -0.0001 H   0  0  0  0  0  0  0  0  0  0  0  0
    0.0000    0.0000    0.0000 C   0  0  0  0  0  0  0  0  0  0  0  0
    0.0098   -0.5755   -0.8173 H   0  0  0  0  0  0  0  0  0  0  0  0
    0.0103   -0.5764    0.8154 H   0  0  0  0  0  0  0  0  0  0  0  0
   -1.2317    0.8282   -0.0000 N   0  0  0  0  0  4  0  0  0  0  0  0
   -1.0240    1.7356   -0.3661 H   0  0  0  0  0  0  0  0  0  0  0  0
   -1.9282    0.3905   -0.5688 H   0  0  0  0  0  0  0  0  0  0  0  0
   -1.5733    0.9168    0.9358 H   0  0  0  0  0  0  0  0  0  0  0  0
    1.3449   -2.0102    2.2070 C   0  0  0  0  0  0  0  0  0  0  0  0
    0.4169   -1.5845    2.1518 H   0  0  0  0  0  0  0  0  0  0  0  0
    1.9734   -1.2737    2.5367 H   0  0  0  0  0  0  0  0  0  0  0  0
    1.3202   -2.8091    2.9481 H   0  0  0  0  0  0  0  0  0  0  0  0
    1.8670   -2.6076    0.5802 S   0  0  0  0  0  0  0  0  0  0  0  0
    0.6270   -3.8098    0.1047 C   0  0  0  0  0  0  0  0  0  0  0  0
   -0.0878   -3.3595   -0.4324 H   0  0  0  0  0  0  0  0  0  0  0  0
    1.0516   -4.5301   -0.4458 H   0  0  0  0  0  0  0  0  0  0  0  0
    0.2201   -4.2149    0.9251 H   0  0  0  0  0  0  0  0  0  0  0  0
  1  5  1  0
  5  8  1  0
  1  2  1  0
  1  3  1  0
  1  4  1  0
  5  6  1  0
  5  7  1  0
  8  9  1  0
  8 10  1  0
  8 11  1  0
 12 16  1  0
 16 17  1  0
 12 13  1  0
 12 14  1  0
 12 15  1  0
 17 18  1  0
 17 19  1  0
 17 20  1  0
M  CHG  1   8   1
M  END
>  <PDB_ID>  (873) 
pdb3e0c

>  <RESIDUE_NAME>  (873) 
LYS   MET

>  <FRAG_NAME>  (873) 
ETAM   MSM

>  <FRAG_ATOM_NUM>  (873) 
fragi: 11  fragj: 9

>  <atom.prop.CHAIN_ID>  (873) 
A A A A A A A A A A A Z Z Z Z Z Z Z Z Z

>  <atom.prop.IS_HEAVY_ATOM>  (873) 
1 0 0 0 1 0 0 1 0 0 0 1 0 0 0 1 1 0 0 0

>  <DIFUSE_FUNC_ATOM>  (873) 
n/a

>  <FINAL_SINGLE_POINT_ENERGY>  (873) 
0

>  <NONCOV_INTER_ENERGY_QM>  (873) 
0

>  <FF_Energy>  (873) 
6.87

>  <QM_Energy>  (873) 
-3.37

>  <source>  (873) 
ETAM_MSM

>  <Index>  (873) 
5334

$$$$
ETAM-pdb3e2y-B-LYS-117:MSM-pdb3e2y-B-MET-333
     RDKit          3D

 20 18  0  0  0  0  0  0  0  0999 V2000
    1.2688    0.8526   -0.0000 C   0  0  0  0  0  0  0  0  0  0  0  0
    1.5154    1.0503   -0.9563 H   0  0  0  0  0  0  0  0  0  0  0  0
    2.0111    0.3125    0.4131 H   0  0  0  0  0  0  0  0  0  0  0  0
    1.1849    1.7966    0.5385 H   0  0  0  0  0  0  0  0  0  0  0  0
    0.0000    0.0000    0.0000 C   0  0  0  0  0  0  0  0  0  0  0  0
    0.0263   -0.6090   -0.8166 H   0  0  0  0  0  0  0  0  0  0  0  0
    0.0255   -0.6088    0.8167 H   0  0  0  0  0  0  0  0  0  0  0  0
   -1.2688    0.7579    0.0000 N   0  0  0  0  0  4  0  0  0  0  0  0
   -1.5683    0.9138   -0.9430 H   0  0  0  0  0  0  0  0  0  0  0  0
   -1.9717    0.2380    0.4884 H   0  0  0  0  0  0  0  0  0  0  0  0
   -1.1339    1.6403    0.4545 H   0  0  0  0  0  0  0  0  0  0  0  0
    3.7999   -3.8039   -1.7797 C   0  0  0  0  0  0  0  0  0  0  0  0
    4.5649   -3.9701   -2.4509 H   0  0  0  0  0  0  0  0  0  0  0  0
    2.9467   -4.1000   -2.2781 H   0  0  0  0  0  0  0  0  0  0  0  0
    3.9449   -4.4477   -0.9121 H   0  0  0  0  0  0  0  0  0  0  0  0
    3.7043   -2.0546   -1.3601 S   0  0  0  0  0  0  0  0  0  0  0  0
    2.0444   -1.9975   -0.7664 C   0  0  0  0  0  0  0  0  0  0  0  0
    1.3970   -2.0239   -1.5355 H   0  0  0  0  0  0  0  0  0  0  0  0
    1.8610   -2.7835   -0.1657 H   0  0  0  0  0  0  0  0  0  0  0  0
    1.8883   -1.1514   -0.2450 H   0  0  0  0  0  0  0  0  0  0  0  0
  1  5  1  0
  5  8  1  0
  1  2  1  0
  1  3  1  0
  1  4  1  0
  5  6  1  0
  5  7  1  0
  8  9  1  0
  8 10  1  0
  8 11  1  0
 12 16  1  0
 16 17  1  0
 12 13  1  0
 12 14  1  0
 12 15  1  0
 17 18  1  0
 17 19  1  0
 17 20  1  0
M  CHG  1   8   1
M  END
>  <PDB_ID>  (874) 
pdb3e2y

>  <RESIDUE_NAME>  (874) 
LYS   MET

>  <FRAG_NAME>  (874) 
ETAM   MSM

>  <FRAG_ATOM_NUM>  (874) 
fragi: 11  fragj: 9

>  <atom.prop.CHAIN_ID>  (874) 
A A A A A A A A A A A Z Z Z Z Z Z Z Z Z

>  <atom.prop.IS_HEAVY_ATOM>  (874) 
1 0 0 0 1 0 0 1 0 0 0 1 0 0 0 1 1 0 0 0

>  <DIFUSE_FUNC_ATOM>  (874) 
n/a

>  <FINAL_SINGLE_POINT_ENERGY>  (874) 
0

>  <NONCOV_INTER_ENERGY_QM>  (874) 
0

>  <FF_Energy>  (874) 
31.76

>  <QM_Energy>  (874) 
7.24

>  <source>  (874) 
ETAM_MSM

>  <Index>  (874) 
5342

$$$$
ETAM-pdb3e61-B-LYS-196:MSM-pdb3e61-B-MET-208
     RDKit          3D

 20 18  0  0  0  0  0  0  0  0999 V2000
    1.2414    0.8488   -0.0000 C   0  0  0  0  0  0  0  0  0  0  0  0
    1.3683    1.2420    0.9021 H   0  0  0  0  0  0  0  0  0  0  0  0
    1.1500    1.5613   -0.6848 H   0  0  0  0  0  0  0  0  0  0  0  0
    2.1179    0.2473   -0.2410 H   0  0  0  0  0  0  0  0  0  0  0  0
    0.0000    0.0000    0.0000 C   0  0  0  0  0  0  0  0  0  0  0  0
    0.0039   -0.5923   -0.8163 H   0  0  0  0  0  0  0  0  0  0  0  0
    0.0037   -0.5923    0.8161 H   0  0  0  0  0  0  0  0  0  0  0  0
   -1.2414    0.8114   -0.0000 N   0  0  0  0  0  4  0  0  0  0  0  0
   -1.9709    0.3054    0.4621 H   0  0  0  0  0  0  0  0  0  0  0  0
   -1.0774    1.6725    0.4814 H   0  0  0  0  0  0  0  0  0  0  0  0
   -1.5147    1.0035   -0.9432 H   0  0  0  0  0  0  0  0  0  0  0  0
   -1.4465   -4.1991    1.0454 C   0  0  0  0  0  0  0  0  0  0  0  0
   -0.8519   -4.4806    1.8032 H   0  0  0  0  0  0  0  0  0  0  0  0
   -0.9403   -4.2923    0.1838 H   0  0  0  0  0  0  0  0  0  0  0  0
   -2.2848   -4.8949    1.0110 H   0  0  0  0  0  0  0  0  0  0  0  0
   -2.0730   -2.5244    1.2743 S   0  0  0  0  0  0  0  0  0  0  0  0
   -2.2003   -2.3995    3.0526 C   0  0  0  0  0  0  0  0  0  0  0  0
   -1.3206   -2.1100    3.4348 H   0  0  0  0  0  0  0  0  0  0  0  0
   -2.9024   -1.7277    3.2947 H   0  0  0  0  0  0  0  0  0  0  0  0
   -2.4499   -3.2897    3.4370 H   0  0  0  0  0  0  0  0  0  0  0  0
  1  5  1  0
  5  8  1  0
  1  2  1  0
  1  3  1  0
  1  4  1  0
  5  6  1  0
  5  7  1  0
  8  9  1  0
  8 10  1  0
  8 11  1  0
 12 16  1  0
 16 17  1  0
 12 13  1  0
 12 14  1  0
 12 15  1  0
 17 18  1  0
 17 19  1  0
 17 20  1  0
M  CHG  1   8   1
M  END
>  <PDB_ID>  (875) 
pdb3e61

>  <RESIDUE_NAME>  (875) 
LYS   MET

>  <FRAG_NAME>  (875) 
ETAM   MSM

>  <FRAG_ATOM_NUM>  (875) 
fragi: 11  fragj: 9

>  <atom.prop.CHAIN_ID>  (875) 
A A A A A A A A A A A Z Z Z Z Z Z Z Z Z

>  <atom.prop.IS_HEAVY_ATOM>  (875) 
1 0 0 0 1 0 0 1 0 0 0 1 0 0 0 1 1 0 0 0

>  <DIFUSE_FUNC_ATOM>  (875) 
n/a

>  <FINAL_SINGLE_POINT_ENERGY>  (875) 
0

>  <NONCOV_INTER_ENERGY_QM>  (875) 
0

>  <FF_Energy>  (875) 
-5.08

>  <QM_Energy>  (875) 
-11.39

>  <source>  (875) 
ETAM_MSM

>  <Index>  (875) 
5352

$$$$
ETAM-pdb3e61-A-LYS-196:MSM-pdb3e61-A-MET-208
     RDKit          3D

 20 18  0  0  0  0  0  0  0  0999 V2000
    1.2361    0.8603    0.0000 C   0  0  0  0  0  0  0  0  0  0  0  0
    1.4657    1.0892   -0.9424 H   0  0  0  0  0  0  0  0  0  0  0  0
    1.9810    0.3485    0.4196 H   0  0  0  0  0  0  0  0  0  0  0  0
    1.0707    1.7796    0.5618 H   0  0  0  0  0  0  0  0  0  0  0  0
    0.0000    0.0000    0.0000 C   0  0  0  0  0  0  0  0  0  0  0  0
   -0.0084   -0.5747   -0.8162 H   0  0  0  0  0  0  0  0  0  0  0  0
   -0.0093   -0.5749    0.8162 H   0  0  0  0  0  0  0  0  0  0  0  0
   -1.2361    0.8550   -0.0000 N   0  0  0  0  0  4  0  0  0  0  0  0
   -1.6738    0.7926    0.8937 H   0  0  0  0  0  0  0  0  0  0  0  0
   -0.9767    1.7995   -0.1863 H   0  0  0  0  0  0  0  0  0  0  0  0
   -1.8574    0.5258   -0.7072 H   0  0  0  0  0  0  0  0  0  0  0  0
   -4.0086    1.3719   -2.2490 C   0  0  0  0  0  0  0  0  0  0  0  0
   -3.6575    2.2386   -2.6455 H   0  0  0  0  0  0  0  0  0  0  0  0
   -4.2521    1.5638   -1.2822 H   0  0  0  0  0  0  0  0  0  0  0  0
   -4.9118    1.0831   -2.7864 H   0  0  0  0  0  0  0  0  0  0  0  0
   -2.8122    0.0732   -2.3701 S   0  0  0  0  0  0  0  0  0  0  0  0
   -2.4364    0.1168   -4.1472 C   0  0  0  0  0  0  0  0  0  0  0  0
   -2.0567    1.0096   -4.3757 H   0  0  0  0  0  0  0  0  0  0  0  0
   -1.7750   -0.5989   -4.3548 H   0  0  0  0  0  0  0  0  0  0  0  0
   -3.2778   -0.0371   -4.6589 H   0  0  0  0  0  0  0  0  0  0  0  0
  1  5  1  0
  5  8  1  0
  1  2  1  0
  1  3  1  0
  1  4  1  0
  5  6  1  0
  5  7  1  0
  8  9  1  0
  8 10  1  0
  8 11  1  0
 12 16  1  0
 16 17  1  0
 12 13  1  0
 12 14  1  0
 12 15  1  0
 17 18  1  0
 17 19  1  0
 17 20  1  0
M  CHG  1   8   1
M  END
>  <PDB_ID>  (876) 
pdb3e61

>  <RESIDUE_NAME>  (876) 
LYS   MET

>  <FRAG_NAME>  (876) 
ETAM   MSM

>  <FRAG_ATOM_NUM>  (876) 
fragi: 11  fragj: 9

>  <atom.prop.CHAIN_ID>  (876) 
A A A A A A A A A A A Z Z Z Z Z Z Z Z Z

>  <atom.prop.IS_HEAVY_ATOM>  (876) 
1 0 0 0 1 0 0 1 0 0 0 1 0 0 0 1 1 0 0 0

>  <DIFUSE_FUNC_ATOM>  (876) 
n/a

>  <FINAL_SINGLE_POINT_ENERGY>  (876) 
0

>  <NONCOV_INTER_ENERGY_QM>  (876) 
0

>  <FF_Energy>  (876) 
-2.75

>  <QM_Energy>  (876) 
-13.48

>  <source>  (876) 
ETAM_MSM

>  <Index>  (876) 
5354

$$$$
ETAM-pdb3e7a-A-LYS-60:MSM-pdb3e7a-B-MET-290
     RDKit          3D

 20 18  0  0  0  0  0  0  0  0999 V2000
    1.2406    0.9024    0.0000 C   0  0  0  0  0  0  0  0  0  0  0  0
    1.2333    1.4182    0.8505 H   0  0  0  0  0  0  0  0  0  0  0  0
    1.1609    1.5165   -0.7782 H   0  0  0  0  0  0  0  0  0  0  0  0
    2.1458    0.2999   -0.0759 H   0  0  0  0  0  0  0  0  0  0  0  0
    0.0000    0.0000    0.0000 C   0  0  0  0  0  0  0  0  0  0  0  0
    0.0358   -0.5830   -0.8162 H   0  0  0  0  0  0  0  0  0  0  0  0
    0.0349   -0.5831    0.8166 H   0  0  0  0  0  0  0  0  0  0  0  0
   -1.2406    0.7861   -0.0000 N   0  0  0  0  0  4  0  0  0  0  0  0
   -1.4271    1.1297    0.9241 H   0  0  0  0  0  0  0  0  0  0  0  0
   -1.1518    1.5638   -0.6267 H   0  0  0  0  0  0  0  0  0  0  0  0
   -2.0077    0.2124   -0.2969 H   0  0  0  0  0  0  0  0  0  0  0  0
   -4.8253   -1.0830    2.1488 C   0  0  0  0  0  0  0  0  0  0  0  0
   -4.8553   -0.0780    2.0433 H   0  0  0  0  0  0  0  0  0  0  0  0
   -5.0513   -1.2974    3.1108 H   0  0  0  0  0  0  0  0  0  0  0  0
   -5.5674   -1.5374    1.4923 H   0  0  0  0  0  0  0  0  0  0  0  0
   -3.2092   -1.7204    1.7186 S   0  0  0  0  0  0  0  0  0  0  0  0
   -3.3309   -3.3928    2.3889 C   0  0  0  0  0  0  0  0  0  0  0  0
   -3.0297   -3.3875    3.3414 H   0  0  0  0  0  0  0  0  0  0  0  0
   -4.2793   -3.6995    2.3370 H   0  0  0  0  0  0  0  0  0  0  0  0
   -2.7489   -4.0042    1.8543 H   0  0  0  0  0  0  0  0  0  0  0  0
  1  5  1  0
  5  8  1  0
  1  2  1  0
  1  3  1  0
  1  4  1  0
  5  6  1  0
  5  7  1  0
  8  9  1  0
  8 10  1  0
  8 11  1  0
 12 16  1  0
 16 17  1  0
 12 13  1  0
 12 14  1  0
 12 15  1  0
 17 18  1  0
 17 19  1  0
 17 20  1  0
M  CHG  1   8   1
M  END
>  <PDB_ID>  (877) 
pdb3e7a

>  <RESIDUE_NAME>  (877) 
LYS   MET

>  <FRAG_NAME>  (877) 
ETAM   MSM

>  <FRAG_ATOM_NUM>  (877) 
fragi: 11  fragj: 9

>  <atom.prop.CHAIN_ID>  (877) 
A A A A A A A A A A A Z Z Z Z Z Z Z Z Z

>  <atom.prop.IS_HEAVY_ATOM>  (877) 
1 0 0 0 1 0 0 1 0 0 0 1 0 0 0 1 1 0 0 0

>  <DIFUSE_FUNC_ATOM>  (877) 
n/a

>  <FINAL_SINGLE_POINT_ENERGY>  (877) 
0

>  <NONCOV_INTER_ENERGY_QM>  (877) 
0

>  <FF_Energy>  (877) 
-5.21

>  <QM_Energy>  (877) 
-11.93

>  <source>  (877) 
ETAM_MSM

>  <Index>  (877) 
5357

$$$$
ETAM-pdb3e7a-B-LYS-60:MSM-pdb3e7a-A-MET-290
     RDKit          3D

 20 18  0  0  0  0  0  0  0  0999 V2000
    1.2414    0.8610    0.0000 C   0  0  0  0  0  0  0  0  0  0  0  0
    1.1792    1.5047   -0.7587 H   0  0  0  0  0  0  0  0  0  0  0  0
    2.0356    0.2697   -0.1157 H   0  0  0  0  0  0  0  0  0  0  0  0
    1.3333    1.4127    0.9355 H   0  0  0  0  0  0  0  0  0  0  0  0
    0.0000    0.0000    0.0000 C   0  0  0  0  0  0  0  0  0  0  0  0
    0.0003   -0.5811   -0.8160 H   0  0  0  0  0  0  0  0  0  0  0  0
    0.0001   -0.5819    0.8163 H   0  0  0  0  0  0  0  0  0  0  0  0
   -1.2414    0.8332    0.0000 N   0  0  0  0  0  4  0  0  0  0  0  0
   -1.3121    1.3157   -0.8709 H   0  0  0  0  0  0  0  0  0  0  0  0
   -2.0354    0.2400    0.1223 H   0  0  0  0  0  0  0  0  0  0  0  0
   -1.1939    1.4924    0.7481 H   0  0  0  0  0  0  0  0  0  0  0  0
   -2.4954   -3.8292   -1.8295 C   0  0  0  0  0  0  0  0  0  0  0  0
   -1.9158   -4.2431   -1.0822 H   0  0  0  0  0  0  0  0  0  0  0  0
   -2.2486   -4.3654   -2.6764 H   0  0  0  0  0  0  0  0  0  0  0  0
   -3.5481   -3.9898   -1.5969 H   0  0  0  0  0  0  0  0  0  0  0  0
   -2.0886   -2.0981   -2.0473 S   0  0  0  0  0  0  0  0  0  0  0  0
   -2.7657   -1.7909   -3.6807 C   0  0  0  0  0  0  0  0  0  0  0  0
   -2.5806   -0.8443   -3.9462 H   0  0  0  0  0  0  0  0  0  0  0  0
   -2.3414   -2.4119   -4.3411 H   0  0  0  0  0  0  0  0  0  0  0  0
   -3.7540   -1.9449   -3.6670 H   0  0  0  0  0  0  0  0  0  0  0  0
  1  5  1  0
  5  8  1  0
  1  2  1  0
  1  3  1  0
  1  4  1  0
  5  6  1  0
  5  7  1  0
  8  9  1  0
  8 10  1  0
  8 11  1  0
 12 16  1  0
 16 17  1  0
 12 13  1  0
 12 14  1  0
 12 15  1  0
 17 18  1  0
 17 19  1  0
 17 20  1  0
M  CHG  1   8   1
M  END
>  <PDB_ID>  (878) 
pdb3e7a

>  <RESIDUE_NAME>  (878) 
LYS   MET

>  <FRAG_NAME>  (878) 
ETAM   MSM

>  <FRAG_ATOM_NUM>  (878) 
fragi: 11  fragj: 9

>  <atom.prop.CHAIN_ID>  (878) 
A A A A A A A A A A A Z Z Z Z Z Z Z Z Z

>  <atom.prop.IS_HEAVY_ATOM>  (878) 
1 0 0 0 1 0 0 1 0 0 0 1 0 0 0 1 1 0 0 0

>  <DIFUSE_FUNC_ATOM>  (878) 
n/a

>  <FINAL_SINGLE_POINT_ENERGY>  (878) 
0

>  <NONCOV_INTER_ENERGY_QM>  (878) 
0

>  <FF_Energy>  (878) 
-5.03

>  <QM_Energy>  (878) 
-11.91

>  <source>  (878) 
ETAM_MSM

>  <Index>  (878) 
5362

$$$$
ETAM-pdb3e96-B-LYS-167:MSM-pdb3e96-B-MET-111
     RDKit          3D

 20 18  0  0  0  0  0  0  0  0999 V2000
    1.2450    0.8832   -0.0000 C   0  0  0  0  0  0  0  0  0  0  0  0
    1.2447    1.4270    0.8279 H   0  0  0  0  0  0  0  0  0  0  0  0
    1.2204    1.4611   -0.8040 H   0  0  0  0  0  0  0  0  0  0  0  0
    2.1488    0.2744   -0.0252 H   0  0  0  0  0  0  0  0  0  0  0  0
    0.0000    0.0000    0.0000 C   0  0  0  0  0  0  0  0  0  0  0  0
    0.0166   -0.5806   -0.8167 H   0  0  0  0  0  0  0  0  0  0  0  0
    0.0164   -0.5809    0.8169 H   0  0  0  0  0  0  0  0  0  0  0  0
   -1.2450    0.8134    0.0000 N   0  0  0  0  0  4  0  0  0  0  0  0
   -1.4187    1.1548   -0.9235 H   0  0  0  0  0  0  0  0  0  0  0  0
   -2.0126    0.2457    0.2964 H   0  0  0  0  0  0  0  0  0  0  0  0
   -1.1383    1.5844    0.6268 H   0  0  0  0  0  0  0  0  0  0  0  0
    0.3165    2.5994    3.8379 C   0  0  0  0  0  0  0  0  0  0  0  0
    0.7940    3.3472    4.3701 H   0  0  0  0  0  0  0  0  0  0  0  0
    1.0231    1.8478    3.7652 H   0  0  0  0  0  0  0  0  0  0  0  0
   -0.4965    2.2249    4.4599 H   0  0  0  0  0  0  0  0  0  0  0  0
   -0.1739    3.1864    2.1959 S   0  0  0  0  0  0  0  0  0  0  0  0
   -1.0193    4.7012    2.6245 C   0  0  0  0  0  0  0  0  0  0  0  0
   -0.5282    5.4834    2.2373 H   0  0  0  0  0  0  0  0  0  0  0  0
   -1.9511    4.6832    2.2589 H   0  0  0  0  0  0  0  0  0  0  0  0
   -1.0576    4.7962    3.6212 H   0  0  0  0  0  0  0  0  0  0  0  0
  1  5  1  0
  5  8  1  0
  1  2  1  0
  1  3  1  0
  1  4  1  0
  5  6  1  0
  5  7  1  0
  8  9  1  0
  8 10  1  0
  8 11  1  0
 12 16  1  0
 16 17  1  0
 12 13  1  0
 12 14  1  0
 12 15  1  0
 17 18  1  0
 17 19  1  0
 17 20  1  0
M  CHG  1   8   1
M  END
>  <PDB_ID>  (879) 
pdb3e96

>  <RESIDUE_NAME>  (879) 
LYS   MET

>  <FRAG_NAME>  (879) 
ETAM   MSM

>  <FRAG_ATOM_NUM>  (879) 
fragi: 11  fragj: 9

>  <atom.prop.CHAIN_ID>  (879) 
A A A A A A A A A A A Z Z Z Z Z Z Z Z Z

>  <atom.prop.IS_HEAVY_ATOM>  (879) 
1 0 0 0 1 0 0 1 0 0 0 1 0 0 0 1 1 0 0 0

>  <DIFUSE_FUNC_ATOM>  (879) 
n/a

>  <FINAL_SINGLE_POINT_ENERGY>  (879) 
0

>  <NONCOV_INTER_ENERGY_QM>  (879) 
0

>  <FF_Energy>  (879) 
-5.03

>  <QM_Energy>  (879) 
-15.78

>  <source>  (879) 
ETAM_MSM

>  <Index>  (879) 
5368

$$$$
ETAM-pdb3eb7-B-LYS-211:MSM-pdb3eb7-B-MET-290
     RDKit          3D

 20 18  0  0  0  0  0  0  0  0999 V2000
    1.2905    0.8438   -0.0000 C   0  0  0  0  0  0  0  0  0  0  0  0
    1.0785    1.7318   -0.4125 H   0  0  0  0  0  0  0  0  0  0  0  0
    1.9681    0.3701   -0.5648 H   0  0  0  0  0  0  0  0  0  0  0  0
    1.7078    1.0058    0.9938 H   0  0  0  0  0  0  0  0  0  0  0  0
    0.0000    0.0000    0.0000 C   0  0  0  0  0  0  0  0  0  0  0  0
   -0.0032   -0.5906   -0.8159 H   0  0  0  0  0  0  0  0  0  0  0  0
   -0.0029   -0.5907    0.8161 H   0  0  0  0  0  0  0  0  0  0  0  0
   -1.2905    0.8229    0.0000 N   0  0  0  0  0  4  0  0  0  0  0  0
   -1.3148    1.3623   -0.8334 H   0  0  0  0  0  0  0  0  0  0  0  0
   -2.0586    0.1954    0.0342 H   0  0  0  0  0  0  0  0  0  0  0  0
   -1.2831    1.4120    0.7994 H   0  0  0  0  0  0  0  0  0  0  0  0
   -0.4141    2.8619    3.1606 C   0  0  0  0  0  0  0  0  0  0  0  0
    0.5269    3.1760    2.7935 H   0  0  0  0  0  0  0  0  0  0  0  0
   -0.1639    1.9222    3.5789 H   0  0  0  0  0  0  0  0  0  0  0  0
   -0.6613    3.5208    3.9930 H   0  0  0  0  0  0  0  0  0  0  0  0
   -1.5904    2.6354    1.7640 S   0  0  0  0  0  0  0  0  0  0  0  0
   -1.5036    4.1817    0.8338 C   0  0  0  0  0  0  0  0  0  0  0  0
   -1.4472    4.9469    1.4735 H   0  0  0  0  0  0  0  0  0  0  0  0
   -0.6930    4.1691    0.2505 H   0  0  0  0  0  0  0  0  0  0  0  0
   -2.3233    4.2724    0.2705 H   0  0  0  0  0  0  0  0  0  0  0  0
  1  5  1  0
  5  8  1  0
  1  2  1  0
  1  3  1  0
  1  4  1  0
  5  6  1  0
  5  7  1  0
  8  9  1  0
  8 10  1  0
  8 11  1  0
 12 16  1  0
 16 17  1  0
 12 13  1  0
 12 14  1  0
 12 15  1  0
 17 18  1  0
 17 19  1  0
 17 20  1  0
M  CHG  1   8   1
M  END
>  <PDB_ID>  (880) 
pdb3eb7

>  <RESIDUE_NAME>  (880) 
LYS   MET

>  <FRAG_NAME>  (880) 
ETAM   MSM

>  <FRAG_ATOM_NUM>  (880) 
fragi: 11  fragj: 9

>  <atom.prop.CHAIN_ID>  (880) 
A A A A A A A A A A A Z Z Z Z Z Z Z Z Z

>  <atom.prop.IS_HEAVY_ATOM>  (880) 
1 0 0 0 1 0 0 1 0 0 0 1 0 0 0 1 1 0 0 0

>  <DIFUSE_FUNC_ATOM>  (880) 
n/a

>  <FINAL_SINGLE_POINT_ENERGY>  (880) 
0

>  <NONCOV_INTER_ENERGY_QM>  (880) 
0

>  <FF_Energy>  (880) 
32.26

>  <QM_Energy>  (880) 
8.1

>  <source>  (880) 
ETAM_MSM

>  <Index>  (880) 
5371

$$$$
ETAM-pdb3eco-A-LYS-19:MSM-pdb3eco-A-MET-111
     RDKit          3D

 20 18  0  0  0  0  0  0  0  0999 V2000
    1.2633    0.8686   -0.0000 C   0  0  0  0  0  0  0  0  0  0  0  0
    1.2458    1.4466    0.8065 H   0  0  0  0  0  0  0  0  0  0  0  0
    1.2649    1.4178   -0.8258 H   0  0  0  0  0  0  0  0  0  0  0  0
    2.1656    0.2574    0.0218 H   0  0  0  0  0  0  0  0  0  0  0  0
    0.0000    0.0000    0.0000 C   0  0  0  0  0  0  0  0  0  0  0  0
    0.0146   -0.5891   -0.8165 H   0  0  0  0  0  0  0  0  0  0  0  0
    0.0147   -0.5890    0.8162 H   0  0  0  0  0  0  0  0  0  0  0  0
   -1.2633    0.8029   -0.0000 N   0  0  0  0  0  4  0  0  0  0  0  0
   -1.0894    1.6868    0.4299 H   0  0  0  0  0  0  0  0  0  0  0  0
   -1.5648    0.9383   -0.9416 H   0  0  0  0  0  0  0  0  0  0  0  0
   -1.9646    0.3098    0.5116 H   0  0  0  0  0  0  0  0  0  0  0  0
   -0.2098    0.5061   -3.5542 C   0  0  0  0  0  0  0  0  0  0  0  0
   -0.3748    0.5999   -2.5557 H   0  0  0  0  0  0  0  0  0  0  0  0
   -0.5646   -0.4069   -3.8277 H   0  0  0  0  0  0  0  0  0  0  0  0
   -0.7681    1.2796   -4.0815 H   0  0  0  0  0  0  0  0  0  0  0  0
    1.5576    0.6336   -3.9192 S   0  0  0  0  0  0  0  0  0  0  0  0
    1.9898    2.2003   -3.0573 C   0  0  0  0  0  0  0  0  0  0  0  0
    2.9752    2.2265   -2.9348 H   0  0  0  0  0  0  0  0  0  0  0  0
    1.6867    2.9597   -3.6213 H   0  0  0  0  0  0  0  0  0  0  0  0
    1.5265    2.2104   -2.1784 H   0  0  0  0  0  0  0  0  0  0  0  0
  1  5  1  0
  5  8  1  0
  1  2  1  0
  1  3  1  0
  1  4  1  0
  5  6  1  0
  5  7  1  0
  8  9  1  0
  8 10  1  0
  8 11  1  0
 12 16  1  0
 16 17  1  0
 12 13  1  0
 12 14  1  0
 12 15  1  0
 17 18  1  0
 17 19  1  0
 17 20  1  0
M  CHG  1   8   1
M  END
>  <PDB_ID>  (881) 
pdb3eco

>  <RESIDUE_NAME>  (881) 
LYS   MET

>  <FRAG_NAME>  (881) 
ETAM   MSM

>  <FRAG_ATOM_NUM>  (881) 
fragi: 11  fragj: 9

>  <atom.prop.CHAIN_ID>  (881) 
A A A A A A A A A A A Z Z Z Z Z Z Z Z Z

>  <atom.prop.IS_HEAVY_ATOM>  (881) 
1 0 0 0 1 0 0 1 0 0 0 1 0 0 0 1 1 0 0 0

>  <DIFUSE_FUNC_ATOM>  (881) 
n/a

>  <FINAL_SINGLE_POINT_ENERGY>  (881) 
0

>  <NONCOV_INTER_ENERGY_QM>  (881) 
0

>  <FF_Energy>  (881) 
15.11

>  <QM_Energy>  (881) 
2.16

>  <source>  (881) 
ETAM_MSM

>  <Index>  (881) 
5375

$$$$
ETAM-pdb3eea-A-LYS-99:MSM-pdb3eea-A-MET-65
     RDKit          3D

 20 18  0  0  0  0  0  0  0  0999 V2000
    1.2995    0.8676   -0.0000 C   0  0  0  0  0  0  0  0  0  0  0  0
    1.1895    1.5828   -0.6963 H   0  0  0  0  0  0  0  0  0  0  0  0
    2.0631    0.2726   -0.2644 H   0  0  0  0  0  0  0  0  0  0  0  0
    1.5426    1.3441    0.9497 H   0  0  0  0  0  0  0  0  0  0  0  0
    0.0000    0.0000    0.0000 C   0  0  0  0  0  0  0  0  0  0  0  0
    0.0211   -0.5952   -0.8159 H   0  0  0  0  0  0  0  0  0  0  0  0
    0.0212   -0.5950    0.8163 H   0  0  0  0  0  0  0  0  0  0  0  0
   -1.2995    0.7840   -0.0000 N   0  0  0  0  0  4  0  0  0  0  0  0
   -1.2260    1.5195    0.6663 H   0  0  0  0  0  0  0  0  0  0  0  0
   -1.4455    1.1553   -0.9112 H   0  0  0  0  0  0  0  0  0  0  0  0
   -2.0410    0.1677    0.2451 H   0  0  0  0  0  0  0  0  0  0  0  0
   -3.5402    3.2873   -2.1980 C   0  0  0  0  0  0  0  0  0  0  0  0
   -4.4155    3.5637   -1.7114 H   0  0  0  0  0  0  0  0  0  0  0  0
   -3.5929    2.2493   -2.2238 H   0  0  0  0  0  0  0  0  0  0  0  0
   -3.5889    3.6570   -3.2223 H   0  0  0  0  0  0  0  0  0  0  0  0
   -2.0856    3.8151   -1.2181 S   0  0  0  0  0  0  0  0  0  0  0  0
   -2.3036    5.6172   -1.0657 C   0  0  0  0  0  0  0  0  0  0  0  0
   -3.2676    5.8118   -0.9106 H   0  0  0  0  0  0  0  0  0  0  0  0
   -1.7595    5.9421   -0.2970 H   0  0  0  0  0  0  0  0  0  0  0  0
   -1.9978    6.0495   -1.9097 H   0  0  0  0  0  0  0  0  0  0  0  0
  1  5  1  0
  5  8  1  0
  1  2  1  0
  1  3  1  0
  1  4  1  0
  5  6  1  0
  5  7  1  0
  8  9  1  0
  8 10  1  0
  8 11  1  0
 12 16  1  0
 16 17  1  0
 12 13  1  0
 12 14  1  0
 12 15  1  0
 17 18  1  0
 17 19  1  0
 17 20  1  0
M  CHG  1   8   1
M  END
>  <PDB_ID>  (882) 
pdb3eea

>  <RESIDUE_NAME>  (882) 
LYS   MET

>  <FRAG_NAME>  (882) 
ETAM   MSM

>  <FRAG_ATOM_NUM>  (882) 
fragi: 11  fragj: 9

>  <atom.prop.CHAIN_ID>  (882) 
A A A A A A A A A A A Z Z Z Z Z Z Z Z Z

>  <atom.prop.IS_HEAVY_ATOM>  (882) 
1 0 0 0 1 0 0 1 0 0 0 1 0 0 0 1 1 0 0 0

>  <DIFUSE_FUNC_ATOM>  (882) 
n/a

>  <FINAL_SINGLE_POINT_ENERGY>  (882) 
0

>  <NONCOV_INTER_ENERGY_QM>  (882) 
0

>  <FF_Energy>  (882) 
-5.03

>  <QM_Energy>  (882) 
-11.75

>  <source>  (882) 
ETAM_MSM

>  <Index>  (882) 
5383

$$$$
ETAM-pdb3eh2-A-LYS-304:MSM-pdb3eh2-A-MET-300
     RDKit          3D

 20 18  0  0  0  0  0  0  0  0999 V2000
    1.2413    0.8699   -0.0000 C   0  0  0  0  0  0  0  0  0  0  0  0
    1.2717    1.3822    0.8560 H   0  0  0  0  0  0  0  0  0  0  0  0
    1.1887    1.5010   -0.7713 H   0  0  0  0  0  0  0  0  0  0  0  0
    2.1540    0.2806   -0.0887 H   0  0  0  0  0  0  0  0  0  0  0  0
    0.0000    0.0000    0.0000 C   0  0  0  0  0  0  0  0  0  0  0  0
    0.0068   -0.5803   -0.8164 H   0  0  0  0  0  0  0  0  0  0  0  0
    0.0066   -0.5807    0.8159 H   0  0  0  0  0  0  0  0  0  0  0  0
   -1.2413    0.8258    0.0000 N   0  0  0  0  0  4  0  0  0  0  0  0
   -1.2937    1.3427    0.8535 H   0  0  0  0  0  0  0  0  0  0  0  0
   -1.2179    1.4570   -0.7743 H   0  0  0  0  0  0  0  0  0  0  0  0
   -2.0372    0.2261   -0.0791 H   0  0  0  0  0  0  0  0  0  0  0  0
   -0.9531   -4.1209    4.1090 C   0  0  0  0  0  0  0  0  0  0  0  0
   -0.1267   -4.3926    3.5739 H   0  0  0  0  0  0  0  0  0  0  0  0
   -1.6462   -4.8541    3.9522 H   0  0  0  0  0  0  0  0  0  0  0  0
   -0.6915   -4.1127    5.1671 H   0  0  0  0  0  0  0  0  0  0  0  0
   -1.5700   -2.5266    3.5732 S   0  0  0  0  0  0  0  0  0  0  0  0
   -0.2864   -2.0491    2.4837 C   0  0  0  0  0  0  0  0  0  0  0  0
    0.4339   -2.7536    2.4504 H   0  0  0  0  0  0  0  0  0  0  0  0
   -0.6423   -1.9182    1.5491 H   0  0  0  0  0  0  0  0  0  0  0  0
    0.1333   -1.1836    2.7851 H   0  0  0  0  0  0  0  0  0  0  0  0
  1  5  1  0
  5  8  1  0
  1  2  1  0
  1  3  1  0
  1  4  1  0
  5  6  1  0
  5  7  1  0
  8  9  1  0
  8 10  1  0
  8 11  1  0
 12 16  1  0
 16 17  1  0
 12 13  1  0
 12 14  1  0
 12 15  1  0
 17 18  1  0
 17 19  1  0
 17 20  1  0
M  CHG  1   8   1
M  END
>  <PDB_ID>  (883) 
pdb3eh2

>  <RESIDUE_NAME>  (883) 
LYS   MET

>  <FRAG_NAME>  (883) 
ETAM   MSM

>  <FRAG_ATOM_NUM>  (883) 
fragi: 11  fragj: 9

>  <atom.prop.CHAIN_ID>  (883) 
A A A A A A A A A A A Z Z Z Z Z Z Z Z Z

>  <atom.prop.IS_HEAVY_ATOM>  (883) 
1 0 0 0 1 0 0 1 0 0 0 1 0 0 0 1 1 0 0 0

>  <DIFUSE_FUNC_ATOM>  (883) 
n/a

>  <FINAL_SINGLE_POINT_ENERGY>  (883) 
0

>  <NONCOV_INTER_ENERGY_QM>  (883) 
0

>  <FF_Energy>  (883) 
14.75

>  <QM_Energy>  (883) 
2.11

>  <source>  (883) 
ETAM_MSM

>  <Index>  (883) 
5393

$$$$
ETAM-pdb3ejj-X-LYS-178:MSM-pdb3ejj-X-MET-141
     RDKit          3D

 20 18  0  0  0  0  0  0  0  0999 V2000
    1.2418    0.8856    0.0000 C   0  0  0  0  0  0  0  0  0  0  0  0
    1.2159    1.4710    0.8066 H   0  0  0  0  0  0  0  0  0  0  0  0
    1.2343    1.4432   -0.8263 H   0  0  0  0  0  0  0  0  0  0  0  0
    2.1658    0.3079    0.0211 H   0  0  0  0  0  0  0  0  0  0  0  0
    0.0000    0.0000    0.0000 C   0  0  0  0  0  0  0  0  0  0  0  0
    0.0133   -0.5762   -0.8167 H   0  0  0  0  0  0  0  0  0  0  0  0
    0.0130   -0.5766    0.8160 H   0  0  0  0  0  0  0  0  0  0  0  0
   -1.2418    0.8246    0.0000 N   0  0  0  0  0  4  0  0  0  0  0  0
   -1.0232    1.7499   -0.3053 H   0  0  0  0  0  0  0  0  0  0  0  0
   -1.9106    0.4152   -0.6196 H   0  0  0  0  0  0  0  0  0  0  0  0
   -1.6173    0.8561    0.9256 H   0  0  0  0  0  0  0  0  0  0  0  0
    0.8401    2.9653    2.9324 C   0  0  0  0  0  0  0  0  0  0  0  0
    1.6989    3.4255    3.1876 H   0  0  0  0  0  0  0  0  0  0  0  0
    1.0311    2.3495    2.1589 H   0  0  0  0  0  0  0  0  0  0  0  0
    0.4865    2.3766    3.7789 H   0  0  0  0  0  0  0  0  0  0  0  0
   -0.4235    4.1044    2.5599 S   0  0  0  0  0  0  0  0  0  0  0  0
    0.3781    5.6152    3.0021 C   0  0  0  0  0  0  0  0  0  0  0  0
    0.9378    5.9487    2.2366 H   0  0  0  0  0  0  0  0  0  0  0  0
   -0.3044    6.3167    3.2314 H   0  0  0  0  0  0  0  0  0  0  0  0
    0.9738    5.4729    3.7987 H   0  0  0  0  0  0  0  0  0  0  0  0
  1  5  1  0
  5  8  1  0
  1  2  1  0
  1  3  1  0
  1  4  1  0
  5  6  1  0
  5  7  1  0
  8  9  1  0
  8 10  1  0
  8 11  1  0
 12 16  1  0
 16 17  1  0
 12 13  1  0
 12 14  1  0
 12 15  1  0
 17 18  1  0
 17 19  1  0
 17 20  1  0
M  CHG  1   8   1
M  END
>  <PDB_ID>  (884) 
pdb3ejj

>  <RESIDUE_NAME>  (884) 
LYS   MET

>  <FRAG_NAME>  (884) 
ETAM   MSM

>  <FRAG_ATOM_NUM>  (884) 
fragi: 11  fragj: 9

>  <atom.prop.CHAIN_ID>  (884) 
A A A A A A A A A A A Z Z Z Z Z Z Z Z Z

>  <atom.prop.IS_HEAVY_ATOM>  (884) 
1 0 0 0 1 0 0 1 0 0 0 1 0 0 0 1 1 0 0 0

>  <DIFUSE_FUNC_ATOM>  (884) 
n/a

>  <FINAL_SINGLE_POINT_ENERGY>  (884) 
0

>  <NONCOV_INTER_ENERGY_QM>  (884) 
0

>  <FF_Energy>  (884) 
6.84

>  <QM_Energy>  (884) 
-3.23

>  <source>  (884) 
ETAM_MSM

>  <Index>  (884) 
5400

$$$$
ETAM-pdb3ek1-A-LYS-101:MSM-pdb3ek1-A-MET-95
     RDKit          3D

 20 18  0  0  0  0  0  0  0  0999 V2000
    1.2511    0.9088    0.0000 C   0  0  0  0  0  0  0  0  0  0  0  0
    1.3030    1.3726    0.8731 H   0  0  0  0  0  0  0  0  0  0  0  0
    1.1688    1.5571   -0.7433 H   0  0  0  0  0  0  0  0  0  0  0  0
    2.1693    0.3386   -0.1409 H   0  0  0  0  0  0  0  0  0  0  0  0
    0.0000    0.0000    0.0000 C   0  0  0  0  0  0  0  0  0  0  0  0
    0.0256   -0.5711   -0.8162 H   0  0  0  0  0  0  0  0  0  0  0  0
    0.0252   -0.5713    0.8159 H   0  0  0  0  0  0  0  0  0  0  0  0
   -1.2511    0.8161    0.0000 N   0  0  0  0  0  4  0  0  0  0  0  0
   -2.0307    0.2235   -0.1971 H   0  0  0  0  0  0  0  0  0  0  0  0
   -1.3678    1.2390    0.8975 H   0  0  0  0  0  0  0  0  0  0  0  0
   -1.1813    1.5252   -0.7003 H   0  0  0  0  0  0  0  0  0  0  0  0
    1.7084   -0.1282    4.3827 C   0  0  0  0  0  0  0  0  0  0  0  0
    2.1776   -0.6433    3.6130 H   0  0  0  0  0  0  0  0  0  0  0  0
    0.9834   -0.7919    4.7155 H   0  0  0  0  0  0  0  0  0  0  0  0
    2.4320    0.0147    5.1852 H   0  0  0  0  0  0  0  0  0  0  0  0
    0.9652    1.3761    3.7814 S   0  0  0  0  0  0  0  0  0  0  0  0
    0.4631    2.1988    5.2958 C   0  0  0  0  0  0  0  0  0  0  0  0
    0.9993    1.8441    6.0625 H   0  0  0  0  0  0  0  0  0  0  0  0
    0.6188    3.1831    5.2085 H   0  0  0  0  0  0  0  0  0  0  0  0
   -0.5088    2.0277    5.4625 H   0  0  0  0  0  0  0  0  0  0  0  0
  1  5  1  0
  5  8  1  0
  1  2  1  0
  1  3  1  0
  1  4  1  0
  5  6  1  0
  5  7  1  0
  8  9  1  0
  8 10  1  0
  8 11  1  0
 12 16  1  0
 16 17  1  0
 12 13  1  0
 12 14  1  0
 12 15  1  0
 17 18  1  0
 17 19  1  0
 17 20  1  0
M  CHG  1   8   1
M  END
>  <PDB_ID>  (885) 
pdb3ek1

>  <RESIDUE_NAME>  (885) 
LYS   MET

>  <FRAG_NAME>  (885) 
ETAM   MSM

>  <FRAG_ATOM_NUM>  (885) 
fragi: 11  fragj: 9

>  <atom.prop.CHAIN_ID>  (885) 
A A A A A A A A A A A Z Z Z Z Z Z Z Z Z

>  <atom.prop.IS_HEAVY_ATOM>  (885) 
1 0 0 0 1 0 0 1 0 0 0 1 0 0 0 1 1 0 0 0

>  <DIFUSE_FUNC_ATOM>  (885) 
n/a

>  <FINAL_SINGLE_POINT_ENERGY>  (885) 
0

>  <NONCOV_INTER_ENERGY_QM>  (885) 
0

>  <FF_Energy>  (885) 
-4.11

>  <QM_Energy>  (885) 
-9.21

>  <source>  (885) 
ETAM_MSM

>  <Index>  (885) 
5401

$$$$
ETAM-pdb3ek1-D-LYS-101:MSM-pdb3ek1-D-MET-95
     RDKit          3D

 20 18  0  0  0  0  0  0  0  0999 V2000
    1.2249    0.8813   -0.0000 C   0  0  0  0  0  0  0  0  0  0  0  0
    1.2892    1.3634    0.8744 H   0  0  0  0  0  0  0  0  0  0  0  0
    1.1555    1.5487   -0.7427 H   0  0  0  0  0  0  0  0  0  0  0  0
    2.1585    0.3361   -0.1386 H   0  0  0  0  0  0  0  0  0  0  0  0
    0.0000    0.0000    0.0000 C   0  0  0  0  0  0  0  0  0  0  0  0
    0.0199   -0.5841   -0.8167 H   0  0  0  0  0  0  0  0  0  0  0  0
    0.0193   -0.5841    0.8165 H   0  0  0  0  0  0  0  0  0  0  0  0
   -1.2249    0.8054    0.0000 N   0  0  0  0  0  4  0  0  0  0  0  0
   -1.3982    1.1650   -0.9203 H   0  0  0  0  0  0  0  0  0  0  0  0
   -2.0052    0.2420    0.2822 H   0  0  0  0  0  0  0  0  0  0  0  0
   -1.1300    1.5743    0.6384 H   0  0  0  0  0  0  0  0  0  0  0  0
    1.6377   -0.6143    4.2053 C   0  0  0  0  0  0  0  0  0  0  0  0
    2.1407   -1.0025    3.4074 H   0  0  0  0  0  0  0  0  0  0  0  0
    0.9285   -1.3023    4.4593 H   0  0  0  0  0  0  0  0  0  0  0  0
    2.3318   -0.4976    5.0376 H   0  0  0  0  0  0  0  0  0  0  0  0
    0.8757    0.9551    3.7740 S   0  0  0  0  0  0  0  0  0  0  0  0
    0.1663    1.4700    5.3578 C   0  0  0  0  0  0  0  0  0  0  0  0
   -0.4386    2.2499    5.2061 H   0  0  0  0  0  0  0  0  0  0  0  0
   -0.3513    0.7098    5.7462 H   0  0  0  0  0  0  0  0  0  0  0  0
    0.9050    1.7291    5.9774 H   0  0  0  0  0  0  0  0  0  0  0  0
  1  5  1  0
  5  8  1  0
  1  2  1  0
  1  3  1  0
  1  4  1  0
  5  6  1  0
  5  7  1  0
  8  9  1  0
  8 10  1  0
  8 11  1  0
 12 16  1  0
 16 17  1  0
 12 13  1  0
 12 14  1  0
 12 15  1  0
 17 18  1  0
 17 19  1  0
 17 20  1  0
M  CHG  1   8   1
M  END
>  <PDB_ID>  (886) 
pdb3ek1

>  <RESIDUE_NAME>  (886) 
LYS   MET

>  <FRAG_NAME>  (886) 
ETAM   MSM

>  <FRAG_ATOM_NUM>  (886) 
fragi: 11  fragj: 9

>  <atom.prop.CHAIN_ID>  (886) 
A A A A A A A A A A A Z Z Z Z Z Z Z Z Z

>  <atom.prop.IS_HEAVY_ATOM>  (886) 
1 0 0 0 1 0 0 1 0 0 0 1 0 0 0 1 1 0 0 0

>  <DIFUSE_FUNC_ATOM>  (886) 
n/a

>  <FINAL_SINGLE_POINT_ENERGY>  (886) 
0

>  <NONCOV_INTER_ENERGY_QM>  (886) 
0

>  <FF_Energy>  (886) 
-4.26

>  <QM_Energy>  (886) 
-9.41

>  <source>  (886) 
ETAM_MSM

>  <Index>  (886) 
5405

$$$$
ETAM-pdb3eop-B-LYS-81:MSM-pdb3eop-B-MET-168
     RDKit          3D

 20 18  0  0  0  0  0  0  0  0999 V2000
    1.2511    0.8759    0.0000 C   0  0  0  0  0  0  0  0  0  0  0  0
    1.1695    1.5415    0.7307 H   0  0  0  0  0  0  0  0  0  0  0  0
    1.3208    1.3253   -0.8811 H   0  0  0  0  0  0  0  0  0  0  0  0
    2.1464    0.2764    0.1649 H   0  0  0  0  0  0  0  0  0  0  0  0
    0.0000    0.0000    0.0000 C   0  0  0  0  0  0  0  0  0  0  0  0
    0.0212   -0.5884   -0.8163 H   0  0  0  0  0  0  0  0  0  0  0  0
    0.0203   -0.5890    0.8161 H   0  0  0  0  0  0  0  0  0  0  0  0
   -1.2511    0.7963   -0.0000 N   0  0  0  0  0  4  0  0  0  0  0  0
   -1.0490    1.7360   -0.2779 H   0  0  0  0  0  0  0  0  0  0  0  0
   -1.9048    0.3924   -0.6408 H   0  0  0  0  0  0  0  0  0  0  0  0
   -1.6452    0.7995    0.9194 H   0  0  0  0  0  0  0  0  0  0  0  0
   -4.4380   -0.4835   -0.4007 C   0  0  0  0  0  0  0  0  0  0  0  0
   -3.7113   -0.7303   -1.0753 H   0  0  0  0  0  0  0  0  0  0  0  0
   -4.4966    0.5364   -0.4084 H   0  0  0  0  0  0  0  0  0  0  0  0
   -5.3887   -0.8951   -0.7397 H   0  0  0  0  0  0  0  0  0  0  0  0
   -4.0159   -1.0842    1.2366 S   0  0  0  0  0  0  0  0  0  0  0  0
   -5.1391   -0.0943    2.2495 C   0  0  0  0  0  0  0  0  0  0  0  0
   -5.3986    0.7263    1.7439 H   0  0  0  0  0  0  0  0  0  0  0  0
   -5.9527   -0.6341    2.4589 H   0  0  0  0  0  0  0  0  0  0  0  0
   -4.6759    0.1628    3.0965 H   0  0  0  0  0  0  0  0  0  0  0  0
  1  5  1  0
  5  8  1  0
  1  2  1  0
  1  3  1  0
  1  4  1  0
  5  6  1  0
  5  7  1  0
  8  9  1  0
  8 10  1  0
  8 11  1  0
 12 16  1  0
 16 17  1  0
 12 13  1  0
 12 14  1  0
 12 15  1  0
 17 18  1  0
 17 19  1  0
 17 20  1  0
M  CHG  1   8   1
M  END
>  <PDB_ID>  (887) 
pdb3eop

>  <RESIDUE_NAME>  (887) 
LYS   MET

>  <FRAG_NAME>  (887) 
ETAM   MSM

>  <FRAG_ATOM_NUM>  (887) 
fragi: 11  fragj: 9

>  <atom.prop.CHAIN_ID>  (887) 
A A A A A A A A A A A Z Z Z Z Z Z Z Z Z

>  <atom.prop.IS_HEAVY_ATOM>  (887) 
1 0 0 0 1 0 0 1 0 0 0 1 0 0 0 1 1 0 0 0

>  <DIFUSE_FUNC_ATOM>  (887) 
n/a

>  <FINAL_SINGLE_POINT_ENERGY>  (887) 
0

>  <NONCOV_INTER_ENERGY_QM>  (887) 
0

>  <FF_Energy>  (887) 
-3.34

>  <QM_Energy>  (887) 
-9.83

>  <source>  (887) 
ETAM_MSM

>  <Index>  (887) 
5418

$$$$
ETAM-pdb3eoe-C-LYS-255:MSM-pdb3eoe-C-MET-276
     RDKit          3D

 20 18  0  0  0  0  0  0  0  0999 V2000
    1.2260    0.8826    0.0000 C   0  0  0  0  0  0  0  0  0  0  0  0
    1.4614    1.1089    0.9514 H   0  0  0  0  0  0  0  0  0  0  0  0
    1.0097    1.7354   -0.4874 H   0  0  0  0  0  0  0  0  0  0  0  0
    2.0989    0.4301   -0.4706 H   0  0  0  0  0  0  0  0  0  0  0  0
    0.0000    0.0000    0.0000 C   0  0  0  0  0  0  0  0  0  0  0  0
    0.0118   -0.5767   -0.8158 H   0  0  0  0  0  0  0  0  0  0  0  0
    0.0117   -0.5767    0.8161 H   0  0  0  0  0  0  0  0  0  0  0  0
   -1.2260    0.8262   -0.0000 N   0  0  0  0  0  4  0  0  0  0  0  0
   -1.6726    0.7663    0.8947 H   0  0  0  0  0  0  0  0  0  0  0  0
   -0.9886    1.7804   -0.1885 H   0  0  0  0  0  0  0  0  0  0  0  0
   -1.8548    0.4957   -0.7061 H   0  0  0  0  0  0  0  0  0  0  0  0
    3.6840    1.9987    3.3508 C   0  0  0  0  0  0  0  0  0  0  0  0
    3.5103    1.1541    3.9122 H   0  0  0  0  0  0  0  0  0  0  0  0
    4.0015    2.7072    4.0261 H   0  0  0  0  0  0  0  0  0  0  0  0
    4.5051    1.7890    2.6654 H   0  0  0  0  0  0  0  0  0  0  0  0
    2.1862    2.5336    2.5173 S   0  0  0  0  0  0  0  0  0  0  0  0
    2.7187    4.1216    1.8517 C   0  0  0  0  0  0  0  0  0  0  0  0
    2.8050    4.0512    0.8591 H   0  0  0  0  0  0  0  0  0  0  0  0
    2.0423    4.8199    2.0818 H   0  0  0  0  0  0  0  0  0  0  0  0
    3.6021    4.3670    2.2490 H   0  0  0  0  0  0  0  0  0  0  0  0
  1  5  1  0
  5  8  1  0
  1  2  1  0
  1  3  1  0
  1  4  1  0
  5  6  1  0
  5  7  1  0
  8  9  1  0
  8 10  1  0
  8 11  1  0
 12 16  1  0
 16 17  1  0
 12 13  1  0
 12 14  1  0
 12 15  1  0
 17 18  1  0
 17 19  1  0
 17 20  1  0
M  CHG  1   8   1
M  END
>  <PDB_ID>  (888) 
pdb3eoe

>  <RESIDUE_NAME>  (888) 
LYS   MET

>  <FRAG_NAME>  (888) 
ETAM   MSM

>  <FRAG_ATOM_NUM>  (888) 
fragi: 11  fragj: 9

>  <atom.prop.CHAIN_ID>  (888) 
A A A A A A A A A A A Z Z Z Z Z Z Z Z Z

>  <atom.prop.IS_HEAVY_ATOM>  (888) 
1 0 0 0 1 0 0 1 0 0 0 1 0 0 0 1 1 0 0 0

>  <DIFUSE_FUNC_ATOM>  (888) 
n/a

>  <FINAL_SINGLE_POINT_ENERGY>  (888) 
0

>  <NONCOV_INTER_ENERGY_QM>  (888) 
0

>  <FF_Energy>  (888) 
8.1

>  <QM_Energy>  (888) 
-1.67

>  <source>  (888) 
ETAM_MSM

>  <Index>  (888) 
5420

$$$$
ETAM-pdb3eoe-D-LYS-301:MSM-pdb3eoe-D-MET-297
     RDKit          3D

 20 18  0  0  0  0  0  0  0  0999 V2000
    1.2354    0.8740    0.0000 C   0  0  0  0  0  0  0  0  0  0  0  0
    1.2954    1.3433    0.8715 H   0  0  0  0  0  0  0  0  0  0  0  0
    1.1672    1.5227   -0.7468 H   0  0  0  0  0  0  0  0  0  0  0  0
    2.1312    0.2683   -0.1370 H   0  0  0  0  0  0  0  0  0  0  0  0
    0.0000    0.0000    0.0000 C   0  0  0  0  0  0  0  0  0  0  0  0
    0.0128   -0.5837   -0.8163 H   0  0  0  0  0  0  0  0  0  0  0  0
    0.0126   -0.5835    0.8163 H   0  0  0  0  0  0  0  0  0  0  0  0
   -1.2354    0.8139    0.0000 N   0  0  0  0  0  4  0  0  0  0  0  0
   -1.2997    1.3281   -0.8570 H   0  0  0  0  0  0  0  0  0  0  0  0
   -2.0330    0.2143    0.0872 H   0  0  0  0  0  0  0  0  0  0  0  0
   -1.2163    1.4538    0.7694 H   0  0  0  0  0  0  0  0  0  0  0  0
    0.4288   -0.0532    3.7945 C   0  0  0  0  0  0  0  0  0  0  0  0
    1.0766    0.4412    3.1482 H   0  0  0  0  0  0  0  0  0  0  0  0
    0.3231   -0.9918    3.3588 H   0  0  0  0  0  0  0  0  0  0  0  0
    0.9484   -0.1861    4.7434 H   0  0  0  0  0  0  0  0  0  0  0  0
   -1.1645    0.7960    3.8744 S   0  0  0  0  0  0  0  0  0  0  0  0
   -0.6648    2.4861    4.1975 C   0  0  0  0  0  0  0  0  0  0  0  0
   -0.9554    2.7521    5.1177 H   0  0  0  0  0  0  0  0  0  0  0  0
    0.3312    2.5603    4.1292 H   0  0  0  0  0  0  0  0  0  0  0  0
   -1.0891    3.0954    3.5266 H   0  0  0  0  0  0  0  0  0  0  0  0
  1  5  1  0
  5  8  1  0
  1  2  1  0
  1  3  1  0
  1  4  1  0
  5  6  1  0
  5  7  1  0
  8  9  1  0
  8 10  1  0
  8 11  1  0
 12 16  1  0
 16 17  1  0
 12 13  1  0
 12 14  1  0
 12 15  1  0
 17 18  1  0
 17 19  1  0
 17 20  1  0
M  CHG  1   8   1
M  END
>  <PDB_ID>  (889) 
pdb3eoe

>  <RESIDUE_NAME>  (889) 
LYS   MET

>  <FRAG_NAME>  (889) 
ETAM   MSM

>  <FRAG_ATOM_NUM>  (889) 
fragi: 11  fragj: 9

>  <atom.prop.CHAIN_ID>  (889) 
A A A A A A A A A A A Z Z Z Z Z Z Z Z Z

>  <atom.prop.IS_HEAVY_ATOM>  (889) 
1 0 0 0 1 0 0 1 0 0 0 1 0 0 0 1 1 0 0 0

>  <DIFUSE_FUNC_ATOM>  (889) 
n/a

>  <FINAL_SINGLE_POINT_ENERGY>  (889) 
0

>  <NONCOV_INTER_ENERGY_QM>  (889) 
0

>  <FF_Energy>  (889) 
-3.97

>  <QM_Energy>  (889) 
-9.83

>  <source>  (889) 
ETAM_MSM

>  <Index>  (889) 
5423

$$$$
ETAM-pdb3epy-B-LYS-54:MSM-pdb3epy-B-MET-48
     RDKit          3D

 20 18  0  0  0  0  0  0  0  0999 V2000
    1.2377    0.8783    0.0000 C   0  0  0  0  0  0  0  0  0  0  0  0
    1.5223    1.0336    0.9436 H   0  0  0  0  0  0  0  0  0  0  0  0
    1.0163    1.7474   -0.4362 H   0  0  0  0  0  0  0  0  0  0  0  0
    2.0692    0.4241   -0.5392 H   0  0  0  0  0  0  0  0  0  0  0  0
    0.0000    0.0000    0.0000 C   0  0  0  0  0  0  0  0  0  0  0  0
    0.0188   -0.5850   -0.8166 H   0  0  0  0  0  0  0  0  0  0  0  0
    0.0180   -0.5854    0.8162 H   0  0  0  0  0  0  0  0  0  0  0  0
   -1.2377    0.8040   -0.0000 N   0  0  0  0  0  4  0  0  0  0  0  0
   -1.9702    0.2972    0.4586 H   0  0  0  0  0  0  0  0  0  0  0  0
   -1.0803    1.6671    0.4846 H   0  0  0  0  0  0  0  0  0  0  0  0
   -1.5130    1.0009   -0.9434 H   0  0  0  0  0  0  0  0  0  0  0  0
   -0.7962    5.6792   -0.7672 C   0  0  0  0  0  0  0  0  0  0  0  0
   -0.3051    6.5028   -1.0685 H   0  0  0  0  0  0  0  0  0  0  0  0
   -1.6004    5.9627   -0.2349 H   0  0  0  0  0  0  0  0  0  0  0  0
   -1.1252    5.1192   -1.6426 H   0  0  0  0  0  0  0  0  0  0  0  0
    0.2668    4.6108    0.1912 S   0  0  0  0  0  0  0  0  0  0  0  0
    0.4489    5.5313    1.6992 C   0  0  0  0  0  0  0  0  0  0  0  0
   -0.2745    5.2760    2.3467 H   0  0  0  0  0  0  0  0  0  0  0  0
    1.3416    5.3369    2.1143 H   0  0  0  0  0  0  0  0  0  0  0  0
    0.3843    6.5150    1.5108 H   0  0  0  0  0  0  0  0  0  0  0  0
  1  5  1  0
  5  8  1  0
  1  2  1  0
  1  3  1  0
  1  4  1  0
  5  6  1  0
  5  7  1  0
  8  9  1  0
  8 10  1  0
  8 11  1  0
 12 16  1  0
 16 17  1  0
 12 13  1  0
 12 14  1  0
 12 15  1  0
 17 18  1  0
 17 19  1  0
 17 20  1  0
M  CHG  1   8   1
M  END
>  <PDB_ID>  (890) 
pdb3epy

>  <RESIDUE_NAME>  (890) 
LYS   MET

>  <FRAG_NAME>  (890) 
ETAM   MSM

>  <FRAG_ATOM_NUM>  (890) 
fragi: 11  fragj: 9

>  <atom.prop.CHAIN_ID>  (890) 
A A A A A A A A A A A Z Z Z Z Z Z Z Z Z

>  <atom.prop.IS_HEAVY_ATOM>  (890) 
1 0 0 0 1 0 0 1 0 0 0 1 0 0 0 1 1 0 0 0

>  <DIFUSE_FUNC_ATOM>  (890) 
n/a

>  <FINAL_SINGLE_POINT_ENERGY>  (890) 
0

>  <NONCOV_INTER_ENERGY_QM>  (890) 
0

>  <FF_Energy>  (890) 
-4.25

>  <QM_Energy>  (890) 
-10.94

>  <source>  (890) 
ETAM_MSM

>  <Index>  (890) 
5426

$$$$
ETAM-pdb3eoe-A-LYS-301:MSM-pdb3eoe-B-MET-21
     RDKit          3D

 20 18  0  0  0  0  0  0  0  0999 V2000
    1.2461    0.8646   -0.0000 C   0  0  0  0  0  0  0  0  0  0  0  0
    2.0023    0.3317    0.3703 H   0  0  0  0  0  0  0  0  0  0  0  0
    1.0781    1.6628    0.5710 H   0  0  0  0  0  0  0  0  0  0  0  0
    1.5038    1.1941   -1.0065 H   0  0  0  0  0  0  0  0  0  0  0  0
    0.0000    0.0000    0.0000 C   0  0  0  0  0  0  0  0  0  0  0  0
    0.0114   -0.5884   -0.8158 H   0  0  0  0  0  0  0  0  0  0  0  0
    0.0115   -0.5886    0.8162 H   0  0  0  0  0  0  0  0  0  0  0  0
   -1.2461    0.8075    0.0000 N   0  0  0  0  0  4  0  0  0  0  0  0
   -1.0493    1.7232    0.3503 H   0  0  0  0  0  0  0  0  0  0  0  0
   -1.5987    0.8762   -0.9337 H   0  0  0  0  0  0  0  0  0  0  0  0
   -1.9292    0.3665    0.5829 H   0  0  0  0  0  0  0  0  0  0  0  0
   -1.1614   -0.7416    3.6221 C   0  0  0  0  0  0  0  0  0  0  0  0
   -0.4016   -0.1301    3.8473 H   0  0  0  0  0  0  0  0  0  0  0  0
   -0.8816   -1.3619    2.8889 H   0  0  0  0  0  0  0  0  0  0  0  0
   -1.4548   -1.3113    4.5038 H   0  0  0  0  0  0  0  0  0  0  0  0
   -2.6127    0.2361    3.0909 S   0  0  0  0  0  0  0  0  0  0  0  0
   -3.7790   -1.0915    2.7734 C   0  0  0  0  0  0  0  0  0  0  0  0
   -3.3673   -1.9656    3.0321 H   0  0  0  0  0  0  0  0  0  0  0  0
   -4.6087   -0.9421    3.3117 H   0  0  0  0  0  0  0  0  0  0  0  0
   -4.0107   -1.1065    1.8008 H   0  0  0  0  0  0  0  0  0  0  0  0
  1  5  1  0
  5  8  1  0
  1  2  1  0
  1  3  1  0
  1  4  1  0
  5  6  1  0
  5  7  1  0
  8  9  1  0
  8 10  1  0
  8 11  1  0
 12 16  1  0
 16 17  1  0
 12 13  1  0
 12 14  1  0
 12 15  1  0
 17 18  1  0
 17 19  1  0
 17 20  1  0
M  CHG  1   8   1
M  END
>  <PDB_ID>  (891) 
pdb3eoe

>  <RESIDUE_NAME>  (891) 
LYS   MET

>  <FRAG_NAME>  (891) 
ETAM   MSM

>  <FRAG_ATOM_NUM>  (891) 
fragi: 11  fragj: 9

>  <atom.prop.CHAIN_ID>  (891) 
A A A A A A A A A A A Z Z Z Z Z Z Z Z Z

>  <atom.prop.IS_HEAVY_ATOM>  (891) 
1 0 0 0 1 0 0 1 0 0 0 1 0 0 0 1 1 0 0 0

>  <DIFUSE_FUNC_ATOM>  (891) 
n/a

>  <FINAL_SINGLE_POINT_ENERGY>  (891) 
0

>  <NONCOV_INTER_ENERGY_QM>  (891) 
0

>  <FF_Energy>  (891) 
-4.79

>  <QM_Energy>  (891) 
-13.5

>  <source>  (891) 
ETAM_MSM

>  <Index>  (891) 
5429

$$$$
ETAM-pdb3eop-A-LYS-81:MSM-pdb3eop-A-MET-168
     RDKit          3D

 20 18  0  0  0  0  0  0  0  0999 V2000
    1.2334    0.8742    0.0000 C   0  0  0  0  0  0  0  0  0  0  0  0
    1.2036    1.4727    0.7980 H   0  0  0  0  0  0  0  0  0  0  0  0
    1.2397    1.4209   -0.8344 H   0  0  0  0  0  0  0  0  0  0  0  0
    2.1501    0.2858    0.0390 H   0  0  0  0  0  0  0  0  0  0  0  0
    0.0000    0.0000    0.0000 C   0  0  0  0  0  0  0  0  0  0  0  0
    0.0089   -0.5795   -0.8165 H   0  0  0  0  0  0  0  0  0  0  0  0
    0.0093   -0.5805    0.8165 H   0  0  0  0  0  0  0  0  0  0  0  0
   -1.2334    0.8241   -0.0000 N   0  0  0  0  0  4  0  0  0  0  0  0
   -1.0001    1.7737    0.2093 H   0  0  0  0  0  0  0  0  0  0  0  0
   -1.6661    0.7783   -0.9013 H   0  0  0  0  0  0  0  0  0  0  0  0
   -1.8679    0.4764    0.6915 H   0  0  0  0  0  0  0  0  0  0  0  0
   -1.5249    1.7844    3.8039 C   0  0  0  0  0  0  0  0  0  0  0  0
   -0.8694    1.0168    3.9320 H   0  0  0  0  0  0  0  0  0  0  0  0
   -2.3233    1.4050    3.2996 H   0  0  0  0  0  0  0  0  0  0  0  0
   -1.8585    2.1277    4.7833 H   0  0  0  0  0  0  0  0  0  0  0  0
   -0.7772    3.1262    2.9086 S   0  0  0  0  0  0  0  0  0  0  0  0
   -2.2173    4.1370    2.5838 C   0  0  0  0  0  0  0  0  0  0  0  0
   -2.1197    4.5862    1.6947 H   0  0  0  0  0  0  0  0  0  0  0  0
   -3.0370    3.5625    2.5753 H   0  0  0  0  0  0  0  0  0  0  0  0
   -2.3076    4.8330    3.2979 H   0  0  0  0  0  0  0  0  0  0  0  0
  1  5  1  0
  5  8  1  0
  1  2  1  0
  1  3  1  0
  1  4  1  0
  5  6  1  0
  5  7  1  0
  8  9  1  0
  8 10  1  0
  8 11  1  0
 12 16  1  0
 16 17  1  0
 12 13  1  0
 12 14  1  0
 12 15  1  0
 17 18  1  0
 17 19  1  0
 17 20  1  0
M  CHG  1   8   1
M  END
>  <PDB_ID>  (892) 
pdb3eop

>  <RESIDUE_NAME>  (892) 
LYS   MET

>  <FRAG_NAME>  (892) 
ETAM   MSM

>  <FRAG_ATOM_NUM>  (892) 
fragi: 11  fragj: 9

>  <atom.prop.CHAIN_ID>  (892) 
A A A A A A A A A A A Z Z Z Z Z Z Z Z Z

>  <atom.prop.IS_HEAVY_ATOM>  (892) 
1 0 0 0 1 0 0 1 0 0 0 1 0 0 0 1 1 0 0 0

>  <DIFUSE_FUNC_ATOM>  (892) 
n/a

>  <FINAL_SINGLE_POINT_ENERGY>  (892) 
0

>  <NONCOV_INTER_ENERGY_QM>  (892) 
0

>  <FF_Energy>  (892) 
-3.95

>  <QM_Energy>  (892) 
-10.33

>  <source>  (892) 
ETAM_MSM

>  <Index>  (892) 
5431

$$$$
ETAM-pdb4a27-A-LYS-72:MSM-pdb4a27-A-MET-63
     RDKit          3D

 20 18  0  0  0  0  0  0  0  0999 V2000
    1.2577    0.8661    0.0000 C   0  0  0  0  0  0  0  0  0  0  0  0
    1.2104    1.5012    0.7739 H   0  0  0  0  0  0  0  0  0  0  0  0
    1.2865    1.3898   -0.8536 H   0  0  0  0  0  0  0  0  0  0  0  0
    2.1862    0.3011    0.0827 H   0  0  0  0  0  0  0  0  0  0  0  0
    0.0000    0.0000    0.0000 C   0  0  0  0  0  0  0  0  0  0  0  0
   -0.0000   -0.5784   -0.8163 H   0  0  0  0  0  0  0  0  0  0  0  0
   -0.0006   -0.5782    0.8164 H   0  0  0  0  0  0  0  0  0  0  0  0
   -1.2577    0.8379   -0.0000 N   0  0  0  0  0  4  0  0  0  0  0  0
   -1.2729    1.3925    0.8275 H   0  0  0  0  0  0  0  0  0  0  0  0
   -1.2526    1.4229   -0.8064 H   0  0  0  0  0  0  0  0  0  0  0  0
   -2.0466    0.2310   -0.0206 H   0  0  0  0  0  0  0  0  0  0  0  0
   -2.1929   -2.5684    2.2794 C   0  0  0  0  0  0  0  0  0  0  0  0
   -1.4272   -1.9388    2.5130 H   0  0  0  0  0  0  0  0  0  0  0  0
   -1.7860   -3.4980    2.1915 H   0  0  0  0  0  0  0  0  0  0  0  0
   -2.9087   -2.5721    3.1013 H   0  0  0  0  0  0  0  0  0  0  0  0
   -2.9900   -2.0724    0.7622 S   0  0  0  0  0  0  0  0  0  0  0  0
   -4.0407   -3.5172    0.5384 C   0  0  0  0  0  0  0  0  0  0  0  0
   -3.4798   -4.3436    0.5726 H   0  0  0  0  0  0  0  0  0  0  0  0
   -4.7235   -3.5457    1.2673 H   0  0  0  0  0  0  0  0  0  0  0  0
   -4.4988   -3.4596   -0.3477 H   0  0  0  0  0  0  0  0  0  0  0  0
  1  5  1  0
  5  8  1  0
  1  2  1  0
  1  3  1  0
  1  4  1  0
  5  6  1  0
  5  7  1  0
  8  9  1  0
  8 10  1  0
  8 11  1  0
 12 16  1  0
 16 17  1  0
 12 13  1  0
 12 14  1  0
 12 15  1  0
 17 18  1  0
 17 19  1  0
 17 20  1  0
M  CHG  1   8   1
M  END
>  <PDB_ID>  (893) 
pdb4a27

>  <RESIDUE_NAME>  (893) 
LYS   MET

>  <FRAG_NAME>  (893) 
ETAM   MSM

>  <FRAG_ATOM_NUM>  (893) 
fragi: 11  fragj: 9

>  <atom.prop.CHAIN_ID>  (893) 
A A A A A A A A A A A Z Z Z Z Z Z Z Z Z

>  <atom.prop.IS_HEAVY_ATOM>  (893) 
1 0 0 0 1 0 0 1 0 0 0 1 0 0 0 1 1 0 0 0

>  <DIFUSE_FUNC_ATOM>  (893) 
n/a

>  <FINAL_SINGLE_POINT_ENERGY>  (893) 
0

>  <NONCOV_INTER_ENERGY_QM>  (893) 
0

>  <FF_Energy>  (893) 
-5.65

>  <QM_Energy>  (893) 
-12.58

>  <source>  (893) 
ETAM_MSM

>  <Index>  (893) 
5437

$$$$
ETAM-pdb4a27-B-LYS-72:MSM-pdb4a27-B-MET-63
     RDKit          3D

 20 18  0  0  0  0  0  0  0  0999 V2000
    1.2435    0.8433   -0.0000 C   0  0  0  0  0  0  0  0  0  0  0  0
    1.1872    1.5310    0.7245 H   0  0  0  0  0  0  0  0  0  0  0  0
    1.3437    1.3003   -0.8844 H   0  0  0  0  0  0  0  0  0  0  0  0
    2.1585    0.2763    0.1714 H   0  0  0  0  0  0  0  0  0  0  0  0
    0.0000    0.0000    0.0000 C   0  0  0  0  0  0  0  0  0  0  0  0
   -0.0197   -0.5761   -0.8157 H   0  0  0  0  0  0  0  0  0  0  0  0
   -0.0195   -0.5762    0.8168 H   0  0  0  0  0  0  0  0  0  0  0  0
   -1.2435    0.8652    0.0000 N   0  0  0  0  0  4  0  0  0  0  0  0
   -1.0602    1.6863    0.5317 H   0  0  0  0  0  0  0  0  0  0  0  0
   -1.4650    1.1052   -0.9402 H   0  0  0  0  0  0  0  0  0  0  0  0
   -1.9900    0.3492    0.4086 H   0  0  0  0  0  0  0  0  0  0  0  0
   -2.2413   -2.3471    2.4044 C   0  0  0  0  0  0  0  0  0  0  0  0
   -1.4363   -1.7479    2.5982 H   0  0  0  0  0  0  0  0  0  0  0  0
   -1.8912   -3.3073    2.4330 H   0  0  0  0  0  0  0  0  0  0  0  0
   -2.9833   -2.2128    3.1915 H   0  0  0  0  0  0  0  0  0  0  0  0
   -2.9688   -1.9740    0.8840 S   0  0  0  0  0  0  0  0  0  0  0  0
   -4.0875   -3.3289    0.7104 C   0  0  0  0  0  0  0  0  0  0  0  0
   -3.9832   -3.9673    1.4794 H   0  0  0  0  0  0  0  0  0  0  0  0
   -5.0365   -2.9968    0.6940 H   0  0  0  0  0  0  0  0  0  0  0  0
   -3.9052   -3.8239   -0.1454 H   0  0  0  0  0  0  0  0  0  0  0  0
  1  5  1  0
  5  8  1  0
  1  2  1  0
  1  3  1  0
  1  4  1  0
  5  6  1  0
  5  7  1  0
  8  9  1  0
  8 10  1  0
  8 11  1  0
 12 16  1  0
 16 17  1  0
 12 13  1  0
 12 14  1  0
 12 15  1  0
 17 18  1  0
 17 19  1  0
 17 20  1  0
M  CHG  1   8   1
M  END
>  <PDB_ID>  (894) 
pdb4a27

>  <RESIDUE_NAME>  (894) 
LYS   MET

>  <FRAG_NAME>  (894) 
ETAM   MSM

>  <FRAG_ATOM_NUM>  (894) 
fragi: 11  fragj: 9

>  <atom.prop.CHAIN_ID>  (894) 
A A A A A A A A A A A Z Z Z Z Z Z Z Z Z

>  <atom.prop.IS_HEAVY_ATOM>  (894) 
1 0 0 0 1 0 0 1 0 0 0 1 0 0 0 1 1 0 0 0

>  <DIFUSE_FUNC_ATOM>  (894) 
n/a

>  <FINAL_SINGLE_POINT_ENERGY>  (894) 
0

>  <NONCOV_INTER_ENERGY_QM>  (894) 
0

>  <FF_Energy>  (894) 
-5.73

>  <QM_Energy>  (894) 
-12.98

>  <source>  (894) 
ETAM_MSM

>  <Index>  (894) 
5440

$$$$
ETAM-pdb3eu9-A-LYS-222:MSM-pdb3eu9-A-MET-186
     RDKit          3D

 20 18  0  0  0  0  0  0  0  0999 V2000
    1.2401    0.8889   -0.0000 C   0  0  0  0  0  0  0  0  0  0  0  0
    1.1707    1.5237    0.7641 H   0  0  0  0  0  0  0  0  0  0  0  0
    1.2668    1.3883   -0.8603 H   0  0  0  0  0  0  0  0  0  0  0  0
    2.1540    0.3039    0.1036 H   0  0  0  0  0  0  0  0  0  0  0  0
    0.0000    0.0000    0.0000 C   0  0  0  0  0  0  0  0  0  0  0  0
    0.0196   -0.5786   -0.8158 H   0  0  0  0  0  0  0  0  0  0  0  0
    0.0190   -0.5787    0.8165 H   0  0  0  0  0  0  0  0  0  0  0  0
   -1.2401    0.8130    0.0000 N   0  0  0  0  0  4  0  0  0  0  0  0
   -1.7316    0.6723   -0.8597 H   0  0  0  0  0  0  0  0  0  0  0  0
   -1.8216    0.5358    0.7654 H   0  0  0  0  0  0  0  0  0  0  0  0
   -1.0048    1.7809    0.0947 H   0  0  0  0  0  0  0  0  0  0  0  0
   -1.5460   -1.2445    4.4104 C   0  0  0  0  0  0  0  0  0  0  0  0
   -1.0133   -0.4261    4.7037 H   0  0  0  0  0  0  0  0  0  0  0  0
   -1.3679   -1.9683    5.1065 H   0  0  0  0  0  0  0  0  0  0  0  0
   -2.6083   -1.0005    4.4079 H   0  0  0  0  0  0  0  0  0  0  0  0
   -0.9828   -1.8019    2.7686 S   0  0  0  0  0  0  0  0  0  0  0  0
   -1.1570   -3.5747    2.9287 C   0  0  0  0  0  0  0  0  0  0  0  0
   -2.1274   -3.8131    3.0000 H   0  0  0  0  0  0  0  0  0  0  0  0
   -0.7634   -4.0265    2.1260 H   0  0  0  0  0  0  0  0  0  0  0  0
   -0.6790   -3.8876    3.7518 H   0  0  0  0  0  0  0  0  0  0  0  0
  1  5  1  0
  5  8  1  0
  1  2  1  0
  1  3  1  0
  1  4  1  0
  5  6  1  0
  5  7  1  0
  8  9  1  0
  8 10  1  0
  8 11  1  0
 12 16  1  0
 16 17  1  0
 12 13  1  0
 12 14  1  0
 12 15  1  0
 17 18  1  0
 17 19  1  0
 17 20  1  0
M  CHG  1   8   1
M  END
>  <PDB_ID>  (895) 
pdb3eu9

>  <RESIDUE_NAME>  (895) 
LYS   MET

>  <FRAG_NAME>  (895) 
ETAM   MSM

>  <FRAG_ATOM_NUM>  (895) 
fragi: 11  fragj: 9

>  <atom.prop.CHAIN_ID>  (895) 
A A A A A A A A A A A Z Z Z Z Z Z Z Z Z

>  <atom.prop.IS_HEAVY_ATOM>  (895) 
1 0 0 0 1 0 0 1 0 0 0 1 0 0 0 1 1 0 0 0

>  <DIFUSE_FUNC_ATOM>  (895) 
n/a

>  <FINAL_SINGLE_POINT_ENERGY>  (895) 
0

>  <NONCOV_INTER_ENERGY_QM>  (895) 
0

>  <FF_Energy>  (895) 
-2.58

>  <QM_Energy>  (895) 
-10.95

>  <source>  (895) 
ETAM_MSM

>  <Index>  (895) 
5441

$$$$
ETAM-pdb4a6v-A-LYS-224:MSM-pdb4a6v-A-MET-217
     RDKit          3D

 20 18  0  0  0  0  0  0  0  0999 V2000
    1.1889    0.9291   -0.0000 C   0  0  0  0  0  0  0  0  0  0  0  0
    1.1554    1.5008    0.7948 H   0  0  0  0  0  0  0  0  0  0  0  0
    1.2045    1.4376   -0.8366 H   0  0  0  0  0  0  0  0  0  0  0  0
    2.0886    0.3160    0.0515 H   0  0  0  0  0  0  0  0  0  0  0  0
    0.0000    0.0000    0.0000 C   0  0  0  0  0  0  0  0  0  0  0  0
    0.0108   -0.5434   -0.8165 H   0  0  0  0  0  0  0  0  0  0  0  0
    0.0101   -0.5433    0.8168 H   0  0  0  0  0  0  0  0  0  0  0  0
   -1.1889    0.8784    0.0000 N   0  0  0  0  0  4  0  0  0  0  0  0
   -1.9367    0.4324   -0.4948 H   0  0  0  0  0  0  0  0  0  0  0  0
   -1.4756    1.0566    0.9425 H   0  0  0  0  0  0  0  0  0  0  0  0
   -0.9669    1.7465   -0.4471 H   0  0  0  0  0  0  0  0  0  0  0  0
    0.6280   -1.1386    3.8425 C   0  0  0  0  0  0  0  0  0  0  0  0
    1.6070   -1.4115    3.6273 H   0  0  0  0  0  0  0  0  0  0  0  0
    0.0726   -1.6296    3.1132 H   0  0  0  0  0  0  0  0  0  0  0  0
    0.3597   -1.5430    4.8184 H   0  0  0  0  0  0  0  0  0  0  0  0
    0.4298    0.6481    3.6763 S   0  0  0  0  0  0  0  0  0  0  0  0
    2.0596    1.2825    4.1017 C   0  0  0  0  0  0  0  0  0  0  0  0
    2.7594    0.6734    3.7296 H   0  0  0  0  0  0  0  0  0  0  0  0
    2.1711    2.1968    3.7140 H   0  0  0  0  0  0  0  0  0  0  0  0
    2.1486    1.3263    5.0968 H   0  0  0  0  0  0  0  0  0  0  0  0
  1  5  1  0
  5  8  1  0
  1  2  1  0
  1  3  1  0
  1  4  1  0
  5  6  1  0
  5  7  1  0
  8  9  1  0
  8 10  1  0
  8 11  1  0
 12 16  1  0
 16 17  1  0
 12 13  1  0
 12 14  1  0
 12 15  1  0
 17 18  1  0
 17 19  1  0
 17 20  1  0
M  CHG  1   8   1
M  END
>  <PDB_ID>  (896) 
pdb4a6v

>  <RESIDUE_NAME>  (896) 
LYS   MET

>  <FRAG_NAME>  (896) 
ETAM   MSM

>  <FRAG_ATOM_NUM>  (896) 
fragi: 11  fragj: 9

>  <atom.prop.CHAIN_ID>  (896) 
A A A A A A A A A A A Z Z Z Z Z Z Z Z Z

>  <atom.prop.IS_HEAVY_ATOM>  (896) 
1 0 0 0 1 0 0 1 0 0 0 1 0 0 0 1 1 0 0 0

>  <DIFUSE_FUNC_ATOM>  (896) 
n/a

>  <FINAL_SINGLE_POINT_ENERGY>  (896) 
0

>  <NONCOV_INTER_ENERGY_QM>  (896) 
0

>  <FF_Energy>  (896) 
-4.68

>  <QM_Energy>  (896) 
-10.69

>  <source>  (896) 
ETAM_MSM

>  <Index>  (896) 
5442

$$$$
ETAM-pdb3etd-A-LYS-114:MSM-pdb3etd-A-MET-111
     RDKit          3D

 20 18  0  0  0  0  0  0  0  0999 V2000
    1.2351    0.8875    0.0000 C   0  0  0  0  0  0  0  0  0  0  0  0
    1.2947    1.3600    0.8713 H   0  0  0  0  0  0  0  0  0  0  0  0
    1.1667    1.5366   -0.7475 H   0  0  0  0  0  0  0  0  0  0  0  0
    2.1479    0.3070   -0.1348 H   0  0  0  0  0  0  0  0  0  0  0  0
    0.0000    0.0000    0.0000 C   0  0  0  0  0  0  0  0  0  0  0  0
    0.0209   -0.5800   -0.8161 H   0  0  0  0  0  0  0  0  0  0  0  0
    0.0203   -0.5801    0.8164 H   0  0  0  0  0  0  0  0  0  0  0  0
   -1.2351    0.8089    0.0000 N   0  0  0  0  0  4  0  0  0  0  0  0
   -1.1174    1.6040    0.5974 H   0  0  0  0  0  0  0  0  0  0  0  0
   -1.4337    1.1211   -0.9306 H   0  0  0  0  0  0  0  0  0  0  0  0
   -2.0008    0.2559    0.3335 H   0  0  0  0  0  0  0  0  0  0  0  0
   -0.6628   -2.7215    3.7104 C   0  0  0  0  0  0  0  0  0  0  0  0
   -1.5597   -3.0453    3.3006 H   0  0  0  0  0  0  0  0  0  0  0  0
   -0.7957   -2.8606    4.7308 H   0  0  0  0  0  0  0  0  0  0  0  0
    0.1340   -3.3824    3.3690 H   0  0  0  0  0  0  0  0  0  0  0  0
   -0.4166   -0.9545    3.3513 S   0  0  0  0  0  0  0  0  0  0  0  0
    1.0521   -0.5694    4.3683 C   0  0  0  0  0  0  0  0  0  0  0  0
    1.8156   -1.1201    4.0445 H   0  0  0  0  0  0  0  0  0  0  0  0
    1.2597    0.3988    4.2730 H   0  0  0  0  0  0  0  0  0  0  0  0
    0.8469   -0.7870    5.3171 H   0  0  0  0  0  0  0  0  0  0  0  0
  1  5  1  0
  5  8  1  0
  1  2  1  0
  1  3  1  0
  1  4  1  0
  5  6  1  0
  5  7  1  0
  8  9  1  0
  8 10  1  0
  8 11  1  0
 12 16  1  0
 16 17  1  0
 12 13  1  0
 12 14  1  0
 12 15  1  0
 17 18  1  0
 17 19  1  0
 17 20  1  0
M  CHG  1   8   1
M  END
>  <PDB_ID>  (897) 
pdb3etd

>  <RESIDUE_NAME>  (897) 
LYS   MET

>  <FRAG_NAME>  (897) 
ETAM   MSM

>  <FRAG_ATOM_NUM>  (897) 
fragi: 11  fragj: 9

>  <atom.prop.CHAIN_ID>  (897) 
A A A A A A A A A A A Z Z Z Z Z Z Z Z Z

>  <atom.prop.IS_HEAVY_ATOM>  (897) 
1 0 0 0 1 0 0 1 0 0 0 1 0 0 0 1 1 0 0 0

>  <DIFUSE_FUNC_ATOM>  (897) 
n/a

>  <FINAL_SINGLE_POINT_ENERGY>  (897) 
0

>  <NONCOV_INTER_ENERGY_QM>  (897) 
0

>  <FF_Energy>  (897) 
-3.66

>  <QM_Energy>  (897) 
-10.22

>  <source>  (897) 
ETAM_MSM

>  <Index>  (897) 
5473

$$$$
ETAM-pdb3etd-E-LYS-114:MSM-pdb3etd-E-MET-111
     RDKit          3D

 20 18  0  0  0  0  0  0  0  0999 V2000
    1.2526    0.8963    0.0000 C   0  0  0  0  0  0  0  0  0  0  0  0
    1.2998    1.3695    0.8721 H   0  0  0  0  0  0  0  0  0  0  0  0
    1.1735    1.5466   -0.7466 H   0  0  0  0  0  0  0  0  0  0  0  0
    2.1691    0.3218   -0.1341 H   0  0  0  0  0  0  0  0  0  0  0  0
    0.0000    0.0000    0.0000 C   0  0  0  0  0  0  0  0  0  0  0  0
    0.0244   -0.5783   -0.8163 H   0  0  0  0  0  0  0  0  0  0  0  0
    0.0239   -0.5782    0.8160 H   0  0  0  0  0  0  0  0  0  0  0  0
   -1.2526    0.8072    0.0000 N   0  0  0  0  0  4  0  0  0  0  0  0
   -1.2328    1.4492    0.7660 H   0  0  0  0  0  0  0  0  0  0  0  0
   -1.3200    1.3130   -0.8596 H   0  0  0  0  0  0  0  0  0  0  0  0
   -2.0388    0.1975    0.0939 H   0  0  0  0  0  0  0  0  0  0  0  0
   -0.5737   -2.7440    3.7326 C   0  0  0  0  0  0  0  0  0  0  0  0
   -1.4688   -3.0977    3.3554 H   0  0  0  0  0  0  0  0  0  0  0  0
   -0.6610   -2.8696    4.7559 H   0  0  0  0  0  0  0  0  0  0  0  0
    0.2249   -3.3949    3.3771 H   0  0  0  0  0  0  0  0  0  0  0  0
   -0.3401   -1.0243    3.3175 S   0  0  0  0  0  0  0  0  0  0  0  0
    1.1286   -0.5665    4.3912 C   0  0  0  0  0  0  0  0  0  0  0  0
    1.4554    0.3126    4.0815 H   0  0  0  0  0  0  0  0  0  0  0  0
    0.8088   -0.5268    5.3250 H   0  0  0  0  0  0  0  0  0  0  0  0
    1.8111   -1.2704    4.2703 H   0  0  0  0  0  0  0  0  0  0  0  0
  1  5  1  0
  5  8  1  0
  1  2  1  0
  1  3  1  0
  1  4  1  0
  5  6  1  0
  5  7  1  0
  8  9  1  0
  8 10  1  0
  8 11  1  0
 12 16  1  0
 16 17  1  0
 12 13  1  0
 12 14  1  0
 12 15  1  0
 17 18  1  0
 17 19  1  0
 17 20  1  0
M  CHG  1   8   1
M  END
>  <PDB_ID>  (898) 
pdb3etd

>  <RESIDUE_NAME>  (898) 
LYS   MET

>  <FRAG_NAME>  (898) 
ETAM   MSM

>  <FRAG_ATOM_NUM>  (898) 
fragi: 11  fragj: 9

>  <atom.prop.CHAIN_ID>  (898) 
A A A A A A A A A A A Z Z Z Z Z Z Z Z Z

>  <atom.prop.IS_HEAVY_ATOM>  (898) 
1 0 0 0 1 0 0 1 0 0 0 1 0 0 0 1 1 0 0 0

>  <DIFUSE_FUNC_ATOM>  (898) 
n/a

>  <FINAL_SINGLE_POINT_ENERGY>  (898) 
0

>  <NONCOV_INTER_ENERGY_QM>  (898) 
0

>  <FF_Energy>  (898) 
-3.24

>  <QM_Energy>  (898) 
-10.06

>  <source>  (898) 
ETAM_MSM

>  <Index>  (898) 
5478

$$$$
ETAM-pdb3euo-A-LYS-260:MSM-pdb3euo-A-MET-257
     RDKit          3D

 20 18  0  0  0  0  0  0  0  0999 V2000
    1.2487    0.8524   -0.0000 C   0  0  0  0  0  0  0  0  0  0  0  0
    1.3286    1.3073    0.8758 H   0  0  0  0  0  0  0  0  0  0  0  0
    1.1915    1.5082   -0.7395 H   0  0  0  0  0  0  0  0  0  0  0  0
    2.1300    0.2292   -0.1517 H   0  0  0  0  0  0  0  0  0  0  0  0
    0.0000    0.0000    0.0000 C   0  0  0  0  0  0  0  0  0  0  0  0
    0.0000   -0.5868   -0.8161 H   0  0  0  0  0  0  0  0  0  0  0  0
   -0.0008   -0.5872    0.8165 H   0  0  0  0  0  0  0  0  0  0  0  0
   -1.2487    0.8251   -0.0000 N   0  0  0  0  0  4  0  0  0  0  0  0
   -1.4401    1.1294   -0.9313 H   0  0  0  0  0  0  0  0  0  0  0  0
   -2.0071    0.2709    0.3373 H   0  0  0  0  0  0  0  0  0  0  0  0
   -1.1177    1.6165    0.5934 H   0  0  0  0  0  0  0  0  0  0  0  0
   -3.3633   -1.6015   -3.1614 C   0  0  0  0  0  0  0  0  0  0  0  0
   -4.1247   -1.8350   -3.8012 H   0  0  0  0  0  0  0  0  0  0  0  0
   -3.0789   -2.4830   -2.7285 H   0  0  0  0  0  0  0  0  0  0  0  0
   -2.5303   -1.1619   -3.7100 H   0  0  0  0  0  0  0  0  0  0  0  0
   -3.9616   -0.4629   -1.8904 S   0  0  0  0  0  0  0  0  0  0  0  0
   -5.4338   -1.4198   -1.5834 C   0  0  0  0  0  0  0  0  0  0  0  0
   -6.2377   -0.8213   -1.6000 H   0  0  0  0  0  0  0  0  0  0  0  0
   -5.5349   -2.1252   -2.2889 H   0  0  0  0  0  0  0  0  0  0  0  0
   -5.3714   -1.8609   -0.6854 H   0  0  0  0  0  0  0  0  0  0  0  0
  1  5  1  0
  5  8  1  0
  1  2  1  0
  1  3  1  0
  1  4  1  0
  5  6  1  0
  5  7  1  0
  8  9  1  0
  8 10  1  0
  8 11  1  0
 12 16  1  0
 16 17  1  0
 12 13  1  0
 12 14  1  0
 12 15  1  0
 17 18  1  0
 17 19  1  0
 17 20  1  0
M  CHG  1   8   1
M  END
>  <PDB_ID>  (899) 
pdb3euo

>  <RESIDUE_NAME>  (899) 
LYS   MET

>  <FRAG_NAME>  (899) 
ETAM   MSM

>  <FRAG_ATOM_NUM>  (899) 
fragi: 11  fragj: 9

>  <atom.prop.CHAIN_ID>  (899) 
A A A A A A A A A A A Z Z Z Z Z Z Z Z Z

>  <atom.prop.IS_HEAVY_ATOM>  (899) 
1 0 0 0 1 0 0 1 0 0 0 1 0 0 0 1 1 0 0 0

>  <DIFUSE_FUNC_ATOM>  (899) 
n/a

>  <FINAL_SINGLE_POINT_ENERGY>  (899) 
0

>  <NONCOV_INTER_ENERGY_QM>  (899) 
0

>  <FF_Energy>  (899) 
-5.13

>  <QM_Energy>  (899) 
-11.86

>  <source>  (899) 
ETAM_MSM

>  <Index>  (899) 
5484

$$$$
ETAM-pdb3er6-F-LYS-131:MSM-pdb3er6-F-MET-152
     RDKit          3D

 20 18  0  0  0  0  0  0  0  0999 V2000
    1.2449    0.9014   -0.0000 C   0  0  0  0  0  0  0  0  0  0  0  0
    1.4829    1.0907    0.9480 H   0  0  0  0  0  0  0  0  0  0  0  0
    1.0086    1.7455   -0.4717 H   0  0  0  0  0  0  0  0  0  0  0  0
    2.0845    0.4199   -0.5013 H   0  0  0  0  0  0  0  0  0  0  0  0
    0.0000    0.0000    0.0000 C   0  0  0  0  0  0  0  0  0  0  0  0
    0.0081   -0.5604   -0.8164 H   0  0  0  0  0  0  0  0  0  0  0  0
    0.0078   -0.5604    0.8163 H   0  0  0  0  0  0  0  0  0  0  0  0
   -1.2449    0.8546   -0.0000 N   0  0  0  0  0  4  0  0  0  0  0  0
   -1.2419    1.4247   -0.8168 H   0  0  0  0  0  0  0  0  0  0  0  0
   -2.0429    0.2585    0.0003 H   0  0  0  0  0  0  0  0  0  0  0  0
   -1.2422    1.4247    0.8159 H   0  0  0  0  0  0  0  0  0  0  0  0
    0.7821    3.5097   -3.4642 C   0  0  0  0  0  0  0  0  0  0  0  0
    1.7285    3.1831   -3.6753 H   0  0  0  0  0  0  0  0  0  0  0  0
    0.8420    3.9654   -2.5496 H   0  0  0  0  0  0  0  0  0  0  0  0
    0.5179    4.2684   -4.2009 H   0  0  0  0  0  0  0  0  0  0  0  0
   -0.3904    2.0765   -3.3910 S   0  0  0  0  0  0  0  0  0  0  0  0
   -1.8020    2.9913   -2.9536 C   0  0  0  0  0  0  0  0  0  0  0  0
   -1.5760    3.7024   -2.2720 H   0  0  0  0  0  0  0  0  0  0  0  0
   -2.2006    3.4507   -3.7606 H   0  0  0  0  0  0  0  0  0  0  0  0
   -2.5116    2.3933   -2.5547 H   0  0  0  0  0  0  0  0  0  0  0  0
  1  5  1  0
  5  8  1  0
  1  2  1  0
  1  3  1  0
  1  4  1  0
  5  6  1  0
  5  7  1  0
  8  9  1  0
  8 10  1  0
  8 11  1  0
 12 16  1  0
 16 17  1  0
 12 13  1  0
 12 14  1  0
 12 15  1  0
 17 18  1  0
 17 19  1  0
 17 20  1  0
M  CHG  1   8   1
M  END
>  <PDB_ID>  (900) 
pdb3er6

>  <RESIDUE_NAME>  (900) 
LYS   MET

>  <FRAG_NAME>  (900) 
ETAM   MSM

>  <FRAG_ATOM_NUM>  (900) 
fragi: 11  fragj: 9

>  <atom.prop.CHAIN_ID>  (900) 
A A A A A A A A A A A Z Z Z Z Z Z Z Z Z

>  <atom.prop.IS_HEAVY_ATOM>  (900) 
1 0 0 0 1 0 0 1 0 0 0 1 0 0 0 1 1 0 0 0

>  <DIFUSE_FUNC_ATOM>  (900) 
n/a

>  <FINAL_SINGLE_POINT_ENERGY>  (900) 
0

>  <NONCOV_INTER_ENERGY_QM>  (900) 
0

>  <FF_Energy>  (900) 
-4.51

>  <QM_Energy>  (900) 
-10.7

>  <source>  (900) 
ETAM_MSM

>  <Index>  (900) 
5487

$$$$
ETAM-pdb3etd-B-LYS-126:MSM-pdb3etd-B-MET-111
     RDKit          3D

 20 18  0  0  0  0  0  0  0  0999 V2000
    1.2383    0.8895    0.0000 C   0  0  0  0  0  0  0  0  0  0  0  0
    1.0369    1.7066    0.5309 H   0  0  0  0  0  0  0  0  0  0  0  0
    1.4485    1.1339   -0.9414 H   0  0  0  0  0  0  0  0  0  0  0  0
    2.0961    0.3796    0.4385 H   0  0  0  0  0  0  0  0  0  0  0  0
    0.0000    0.0000    0.0000 C   0  0  0  0  0  0  0  0  0  0  0  0
    0.0149   -0.5738   -0.8158 H   0  0  0  0  0  0  0  0  0  0  0  0
    0.0146   -0.5738    0.8162 H   0  0  0  0  0  0  0  0  0  0  0  0
   -1.2383    0.8259   -0.0000 N   0  0  0  0  0  4  0  0  0  0  0  0
   -1.7241    0.6949    0.8638 H   0  0  0  0  0  0  0  0  0  0  0  0
   -0.9938    1.7895   -0.1041 H   0  0  0  0  0  0  0  0  0  0  0  0
   -1.8237    0.5449   -0.7591 H   0  0  0  0  0  0  0  0  0  0  0  0
   -2.0341   -1.9414   -1.7580 C   0  0  0  0  0  0  0  0  0  0  0  0
   -1.6657   -1.9466   -0.7983 H   0  0  0  0  0  0  0  0  0  0  0  0
   -1.2745   -1.5593   -2.3356 H   0  0  0  0  0  0  0  0  0  0  0  0
   -2.2104   -2.9731   -2.0620 H   0  0  0  0  0  0  0  0  0  0  0  0
   -3.5108   -0.8793   -1.8668 S   0  0  0  0  0  0  0  0  0  0  0  0
   -3.8329   -0.8591   -3.7118 C   0  0  0  0  0  0  0  0  0  0  0  0
   -3.1204   -1.3930   -4.1415 H   0  0  0  0  0  0  0  0  0  0  0  0
   -4.7239   -1.2593   -3.8598 H   0  0  0  0  0  0  0  0  0  0  0  0
   -3.8054    0.0842   -4.0057 H   0  0  0  0  0  0  0  0  0  0  0  0
  1  5  1  0
  5  8  1  0
  1  2  1  0
  1  3  1  0
  1  4  1  0
  5  6  1  0
  5  7  1  0
  8  9  1  0
  8 10  1  0
  8 11  1  0
 12 16  1  0
 16 17  1  0
 12 13  1  0
 12 14  1  0
 12 15  1  0
 17 18  1  0
 17 19  1  0
 17 20  1  0
M  CHG  1   8   1
M  END
>  <PDB_ID>  (901) 
pdb3etd

>  <RESIDUE_NAME>  (901) 
LYS   MET

>  <FRAG_NAME>  (901) 
ETAM   MSM

>  <FRAG_ATOM_NUM>  (901) 
fragi: 11  fragj: 9

>  <atom.prop.CHAIN_ID>  (901) 
A A A A A A A A A A A Z Z Z Z Z Z Z Z Z

>  <atom.prop.IS_HEAVY_ATOM>  (901) 
1 0 0 0 1 0 0 1 0 0 0 1 0 0 0 1 1 0 0 0

>  <DIFUSE_FUNC_ATOM>  (901) 
n/a

>  <FINAL_SINGLE_POINT_ENERGY>  (901) 
0

>  <NONCOV_INTER_ENERGY_QM>  (901) 
0

>  <FF_Energy>  (901) 
-2.58

>  <QM_Energy>  (901) 
-12.11

>  <source>  (901) 
ETAM_MSM

>  <Index>  (901) 
5495

$$$$
ETAM-pdb3etd-B-LYS-114:MSM-pdb3etd-B-MET-111
     RDKit          3D

 20 18  0  0  0  0  0  0  0  0999 V2000
    1.2486    0.8848    0.0000 C   0  0  0  0  0  0  0  0  0  0  0  0
    1.3051    1.3542    0.8762 H   0  0  0  0  0  0  0  0  0  0  0  0
    1.1697    1.5447   -0.7407 H   0  0  0  0  0  0  0  0  0  0  0  0
    2.1640    0.3108   -0.1437 H   0  0  0  0  0  0  0  0  0  0  0  0
    0.0000    0.0000    0.0000 C   0  0  0  0  0  0  0  0  0  0  0  0
    0.0210   -0.5828   -0.8163 H   0  0  0  0  0  0  0  0  0  0  0  0
    0.0209   -0.5825    0.8162 H   0  0  0  0  0  0  0  0  0  0  0  0
   -1.2486    0.8049    0.0000 N   0  0  0  0  0  4  0  0  0  0  0  0
   -1.2840    1.3652   -0.8281 H   0  0  0  0  0  0  0  0  0  0  0  0
   -2.0395    0.1930    0.0231 H   0  0  0  0  0  0  0  0  0  0  0  0
   -1.2619    1.3985    0.8048 H   0  0  0  0  0  0  0  0  0  0  0  0
   -0.6783   -2.7269    3.6501 C   0  0  0  0  0  0  0  0  0  0  0  0
   -1.5545   -3.0565    3.2255 H   0  0  0  0  0  0  0  0  0  0  0  0
   -0.8045   -2.8560    4.6620 H   0  0  0  0  0  0  0  0  0  0  0  0
    0.1288   -3.3804    3.3190 H   0  0  0  0  0  0  0  0  0  0  0  0
   -0.4063   -0.9672    3.2631 S   0  0  0  0  0  0  0  0  0  0  0  0
    1.0885   -0.5694    4.3193 C   0  0  0  0  0  0  0  0  0  0  0  0
    1.3206   -1.3881    4.8223 H   0  0  0  0  0  0  0  0  0  0  0  0
    1.8175   -0.3009    3.7091 H   0  0  0  0  0  0  0  0  0  0  0  0
    0.8332    0.1680    4.9260 H   0  0  0  0  0  0  0  0  0  0  0  0
  1  5  1  0
  5  8  1  0
  1  2  1  0
  1  3  1  0
  1  4  1  0
  5  6  1  0
  5  7  1  0
  8  9  1  0
  8 10  1  0
  8 11  1  0
 12 16  1  0
 16 17  1  0
 12 13  1  0
 12 14  1  0
 12 15  1  0
 17 18  1  0
 17 19  1  0
 17 20  1  0
M  CHG  1   8   1
M  END
>  <PDB_ID>  (902) 
pdb3etd

>  <RESIDUE_NAME>  (902) 
LYS   MET

>  <FRAG_NAME>  (902) 
ETAM   MSM

>  <FRAG_ATOM_NUM>  (902) 
fragi: 11  fragj: 9

>  <atom.prop.CHAIN_ID>  (902) 
A A A A A A A A A A A Z Z Z Z Z Z Z Z Z

>  <atom.prop.IS_HEAVY_ATOM>  (902) 
1 0 0 0 1 0 0 1 0 0 0 1 0 0 0 1 1 0 0 0

>  <DIFUSE_FUNC_ATOM>  (902) 
n/a

>  <FINAL_SINGLE_POINT_ENERGY>  (902) 
0

>  <NONCOV_INTER_ENERGY_QM>  (902) 
0

>  <FF_Energy>  (902) 
-2.65

>  <QM_Energy>  (902) 
-10.08

>  <source>  (902) 
ETAM_MSM

>  <Index>  (902) 
5496

$$$$
ETAM-pdb3eyp-A-LYS-444:MSM-pdb3eyp-A-MET-404
     RDKit          3D

 20 18  0  0  0  0  0  0  0  0999 V2000
    1.2447    0.7604    0.0000 C   0  0  0  0  0  0  0  0  0  0  0  0
    1.9897    0.2329    0.3890 H   0  0  0  0  0  0  0  0  0  0  0  0
    1.1397    1.6247    0.4766 H   0  0  0  0  0  0  0  0  0  0  0  0
    1.5457    1.0075   -1.0180 H   0  0  0  0  0  0  0  0  0  0  0  0
    0.0000    0.0000    0.0000 C   0  0  0  0  0  0  0  0  0  0  0  0
   -0.0524   -0.6031   -0.8165 H   0  0  0  0  0  0  0  0  0  0  0  0
   -0.0528   -0.6033    0.8162 H   0  0  0  0  0  0  0  0  0  0  0  0
   -1.2447    0.8633    0.0000 N   0  0  0  0  0  4  0  0  0  0  0  0
   -1.5444    0.9902    0.9408 H   0  0  0  0  0  0  0  0  0  0  0  0
   -1.0232    1.7417   -0.4131 H   0  0  0  0  0  0  0  0  0  0  0  0
   -1.9521    0.4027   -0.5277 H   0  0  0  0  0  0  0  0  0  0  0  0
    1.2437    4.8965   -1.6045 C   0  0  0  0  0  0  0  0  0  0  0  0
    0.6231    4.8887   -2.3912 H   0  0  0  0  0  0  0  0  0  0  0  0
    2.0266    4.3012   -1.7997 H   0  0  0  0  0  0  0  0  0  0  0  0
    1.6061    5.9139   -1.4569 H   0  0  0  0  0  0  0  0  0  0  0  0
    0.3471    4.2926   -0.0774 S   0  0  0  0  0  0  0  0  0  0  0  0
   -1.1854    5.1193   -0.2844 C   0  0  0  0  0  0  0  0  0  0  0  0
   -1.0401    6.0566   -0.6257 H   0  0  0  0  0  0  0  0  0  0  0  0
   -1.7668    4.6286   -0.9453 H   0  0  0  0  0  0  0  0  0  0  0  0
   -1.6795    5.1749    0.5920 H   0  0  0  0  0  0  0  0  0  0  0  0
  1  5  1  0
  5  8  1  0
  1  2  1  0
  1  3  1  0
  1  4  1  0
  5  6  1  0
  5  7  1  0
  8  9  1  0
  8 10  1  0
  8 11  1  0
 12 16  1  0
 16 17  1  0
 12 13  1  0
 12 14  1  0
 12 15  1  0
 17 18  1  0
 17 19  1  0
 17 20  1  0
M  CHG  1   8   1
M  END
>  <PDB_ID>  (903) 
pdb3eyp

>  <RESIDUE_NAME>  (903) 
LYS   MET

>  <FRAG_NAME>  (903) 
ETAM   MSM

>  <FRAG_ATOM_NUM>  (903) 
fragi: 11  fragj: 9

>  <atom.prop.CHAIN_ID>  (903) 
A A A A A A A A A A A Z Z Z Z Z Z Z Z Z

>  <atom.prop.IS_HEAVY_ATOM>  (903) 
1 0 0 0 1 0 0 1 0 0 0 1 0 0 0 1 1 0 0 0

>  <DIFUSE_FUNC_ATOM>  (903) 
n/a

>  <FINAL_SINGLE_POINT_ENERGY>  (903) 
0

>  <NONCOV_INTER_ENERGY_QM>  (903) 
0

>  <FF_Energy>  (903) 
-4.54

>  <QM_Energy>  (903) 
-11.53

>  <source>  (903) 
ETAM_MSM

>  <Index>  (903) 
5512

$$$$
ETAM-pdb3f1i-S-LYS-306:MSM-pdb3f1i-S-MET-335
     RDKit          3D

 20 18  0  0  0  0  0  0  0  0999 V2000
    1.2577    0.8523    0.0000 C   0  0  0  0  0  0  0  0  0  0  0  0
    1.0958    1.6634    0.5600 H   0  0  0  0  0  0  0  0  0  0  0  0
    1.4586    1.1265   -0.9388 H   0  0  0  0  0  0  0  0  0  0  0  0
    2.1236    0.3243    0.3996 H   0  0  0  0  0  0  0  0  0  0  0  0
    0.0000    0.0000    0.0000 C   0  0  0  0  0  0  0  0  0  0  0  0
   -0.0043   -0.5829   -0.8163 H   0  0  0  0  0  0  0  0  0  0  0  0
   -0.0055   -0.5836    0.8164 H   0  0  0  0  0  0  0  0  0  0  0  0
   -1.2577    0.8365    0.0000 N   0  0  0  0  0  4  0  0  0  0  0  0
   -2.0221    0.2668    0.2888 H   0  0  0  0  0  0  0  0  0  0  0  0
   -1.1375    1.5965    0.6334 H   0  0  0  0  0  0  0  0  0  0  0  0
   -1.4144    1.1789   -0.9219 H   0  0  0  0  0  0  0  0  0  0  0  0
   -0.2514    4.4331   -3.6244 C   0  0  0  0  0  0  0  0  0  0  0  0
   -0.9069    5.1259   -3.9882 H   0  0  0  0  0  0  0  0  0  0  0  0
    0.3489    4.1698   -4.4063 H   0  0  0  0  0  0  0  0  0  0  0  0
    0.3614    4.9022   -2.8546 H   0  0  0  0  0  0  0  0  0  0  0  0
   -1.1108    3.0186   -2.9699 S   0  0  0  0  0  0  0  0  0  0  0  0
   -2.6376    3.7632   -2.3496 C   0  0  0  0  0  0  0  0  0  0  0  0
   -2.9901    4.4026   -3.0309 H   0  0  0  0  0  0  0  0  0  0  0  0
   -3.3085    3.0435   -2.1822 H   0  0  0  0  0  0  0  0  0  0  0  0
   -2.4429    4.2485   -1.4994 H   0  0  0  0  0  0  0  0  0  0  0  0
  1  5  1  0
  5  8  1  0
  1  2  1  0
  1  3  1  0
  1  4  1  0
  5  6  1  0
  5  7  1  0
  8  9  1  0
  8 10  1  0
  8 11  1  0
 12 16  1  0
 16 17  1  0
 12 13  1  0
 12 14  1  0
 12 15  1  0
 17 18  1  0
 17 19  1  0
 17 20  1  0
M  CHG  1   8   1
M  END
>  <PDB_ID>  (904) 
pdb3f1i

>  <RESIDUE_NAME>  (904) 
LYS   MET

>  <FRAG_NAME>  (904) 
ETAM   MSM

>  <FRAG_ATOM_NUM>  (904) 
fragi: 11  fragj: 9

>  <atom.prop.CHAIN_ID>  (904) 
A A A A A A A A A A A Z Z Z Z Z Z Z Z Z

>  <atom.prop.IS_HEAVY_ATOM>  (904) 
1 0 0 0 1 0 0 1 0 0 0 1 0 0 0 1 1 0 0 0

>  <DIFUSE_FUNC_ATOM>  (904) 
n/a

>  <FINAL_SINGLE_POINT_ENERGY>  (904) 
0

>  <NONCOV_INTER_ENERGY_QM>  (904) 
0

>  <FF_Energy>  (904) 
-4.81

>  <QM_Energy>  (904) 
-10.99

>  <source>  (904) 
ETAM_MSM

>  <Index>  (904) 
5525

$$$$
ETAM-pdb4ak5-A-LYS-191:MSM-pdb4ak5-A-MET-264
     RDKit          3D

 20 18  0  0  0  0  0  0  0  0999 V2000
    1.2600    0.8476    0.0000 C   0  0  0  0  0  0  0  0  0  0  0  0
    1.2780    1.3967    0.8356 H   0  0  0  0  0  0  0  0  0  0  0  0
    1.2401    1.4527   -0.7962 H   0  0  0  0  0  0  0  0  0  0  0  0
    2.1733    0.2540   -0.0406 H   0  0  0  0  0  0  0  0  0  0  0  0
    0.0000    0.0000    0.0000 C   0  0  0  0  0  0  0  0  0  0  0  0
   -0.0193   -0.5737   -0.8160 H   0  0  0  0  0  0  0  0  0  0  0  0
   -0.0204   -0.5738    0.8163 H   0  0  0  0  0  0  0  0  0  0  0  0
   -1.2600    0.8699   -0.0000 N   0  0  0  0  0  4  0  0  0  0  0  0
   -2.0210    0.3140   -0.3122 H   0  0  0  0  0  0  0  0  0  0  0  0
   -1.4161    1.1905    0.9267 H   0  0  0  0  0  0  0  0  0  0  0  0
   -1.1090    1.6341   -0.6146 H   0  0  0  0  0  0  0  0  0  0  0  0
   -2.0073   -2.2995   -3.5358 C   0  0  0  0  0  0  0  0  0  0  0  0
   -1.1462   -2.8238   -3.3127 H   0  0  0  0  0  0  0  0  0  0  0  0
   -1.6793   -1.4790   -4.0694 H   0  0  0  0  0  0  0  0  0  0  0  0
   -2.6303   -2.9130   -4.1867 H   0  0  0  0  0  0  0  0  0  0  0  0
   -2.8269   -1.7594   -1.9976 S   0  0  0  0  0  0  0  0  0  0  0  0
   -3.2584   -3.3392   -1.2277 C   0  0  0  0  0  0  0  0  0  0  0  0
   -2.4281   -3.8792   -1.1021 H   0  0  0  0  0  0  0  0  0  0  0  0
   -3.6865   -3.1655   -0.3429 H   0  0  0  0  0  0  0  0  0  0  0  0
   -3.8938   -3.8286   -1.8216 H   0  0  0  0  0  0  0  0  0  0  0  0
  1  5  1  0
  5  8  1  0
  1  2  1  0
  1  3  1  0
  1  4  1  0
  5  6  1  0
  5  7  1  0
  8  9  1  0
  8 10  1  0
  8 11  1  0
 12 16  1  0
 16 17  1  0
 12 13  1  0
 12 14  1  0
 12 15  1  0
 17 18  1  0
 17 19  1  0
 17 20  1  0
M  CHG  1   8   1
M  END
>  <PDB_ID>  (905) 
pdb4ak5

>  <RESIDUE_NAME>  (905) 
LYS   MET

>  <FRAG_NAME>  (905) 
ETAM   MSM

>  <FRAG_ATOM_NUM>  (905) 
fragi: 11  fragj: 9

>  <atom.prop.CHAIN_ID>  (905) 
A A A A A A A A A A A Z Z Z Z Z Z Z Z Z

>  <atom.prop.IS_HEAVY_ATOM>  (905) 
1 0 0 0 1 0 0 1 0 0 0 1 0 0 0 1 1 0 0 0

>  <DIFUSE_FUNC_ATOM>  (905) 
n/a

>  <FINAL_SINGLE_POINT_ENERGY>  (905) 
0

>  <NONCOV_INTER_ENERGY_QM>  (905) 
0

>  <FF_Energy>  (905) 
-5.31

>  <QM_Energy>  (905) 
-13.23

>  <source>  (905) 
ETAM_MSM

>  <Index>  (905) 
5530

$$$$
ETAM-pdb3eyp-B-LYS-444:MSM-pdb3eyp-B-MET-404
     RDKit          3D

 20 18  0  0  0  0  0  0  0  0999 V2000
    1.2235    0.8683    0.0000 C   0  0  0  0  0  0  0  0  0  0  0  0
    2.0064    0.3481    0.3491 H   0  0  0  0  0  0  0  0  0  0  0  0
    1.0714    1.6653    0.5898 H   0  0  0  0  0  0  0  0  0  0  0  0
    1.5006    1.2441   -0.9849 H   0  0  0  0  0  0  0  0  0  0  0  0
    0.0000    0.0000    0.0000 C   0  0  0  0  0  0  0  0  0  0  0  0
    0.0143   -0.5882   -0.8165 H   0  0  0  0  0  0  0  0  0  0  0  0
    0.0142   -0.5882    0.8162 H   0  0  0  0  0  0  0  0  0  0  0  0
   -1.2235    0.8056   -0.0000 N   0  0  0  0  0  4  0  0  0  0  0  0
   -1.0347    1.7166    0.3757 H   0  0  0  0  0  0  0  0  0  0  0  0
   -1.5689    0.9045   -0.9374 H   0  0  0  0  0  0  0  0  0  0  0  0
   -1.9264    0.3619    0.5612 H   0  0  0  0  0  0  0  0  0  0  0  0
    1.0892    5.1923   -0.7855 C   0  0  0  0  0  0  0  0  0  0  0  0
    0.6542    5.1232   -1.7100 H   0  0  0  0  0  0  0  0  0  0  0  0
    1.9953    4.7218   -0.8712 H   0  0  0  0  0  0  0  0  0  0  0  0
    1.2652    6.2450   -0.5645 H   0  0  0  0  0  0  0  0  0  0  0  0
    0.0300    4.2836    0.4738 S   0  0  0  0  0  0  0  0  0  0  0  0
   -1.4015    5.3401    0.4752 C   0  0  0  0  0  0  0  0  0  0  0  0
   -1.2524    6.1171    1.0921 H   0  0  0  0  0  0  0  0  0  0  0  0
   -1.5713    5.6856   -0.4505 H   0  0  0  0  0  0  0  0  0  0  0  0
   -2.2051    4.8259    0.7848 H   0  0  0  0  0  0  0  0  0  0  0  0
  1  5  1  0
  5  8  1  0
  1  2  1  0
  1  3  1  0
  1  4  1  0
  5  6  1  0
  5  7  1  0
  8  9  1  0
  8 10  1  0
  8 11  1  0
 12 16  1  0
 16 17  1  0
 12 13  1  0
 12 14  1  0
 12 15  1  0
 17 18  1  0
 17 19  1  0
 17 20  1  0
M  CHG  1   8   1
M  END
>  <PDB_ID>  (906) 
pdb3eyp

>  <RESIDUE_NAME>  (906) 
LYS   MET

>  <FRAG_NAME>  (906) 
ETAM   MSM

>  <FRAG_ATOM_NUM>  (906) 
fragi: 11  fragj: 9

>  <atom.prop.CHAIN_ID>  (906) 
A A A A A A A A A A A Z Z Z Z Z Z Z Z Z

>  <atom.prop.IS_HEAVY_ATOM>  (906) 
1 0 0 0 1 0 0 1 0 0 0 1 0 0 0 1 1 0 0 0

>  <DIFUSE_FUNC_ATOM>  (906) 
n/a

>  <FINAL_SINGLE_POINT_ENERGY>  (906) 
0

>  <NONCOV_INTER_ENERGY_QM>  (906) 
0

>  <FF_Energy>  (906) 
-4.94

>  <QM_Energy>  (906) 
-12.47

>  <source>  (906) 
ETAM_MSM

>  <Index>  (906) 
5531

$$$$
ETAM-pdb3f1y-A-LYS-163:MSM-pdb3f1y-A-MET-234
     RDKit          3D

 20 18  0  0  0  0  0  0  0  0999 V2000
    1.2366    0.8259   -0.0000 C   0  0  0  0  0  0  0  0  0  0  0  0
    1.2547    1.3991    0.8091 H   0  0  0  0  0  0  0  0  0  0  0  0
    1.2699    1.3766   -0.8240 H   0  0  0  0  0  0  0  0  0  0  0  0
    2.1152    0.1811    0.0180 H   0  0  0  0  0  0  0  0  0  0  0  0
    0.0000    0.0000    0.0000 C   0  0  0  0  0  0  0  0  0  0  0  0
   -0.0093   -0.5973   -0.8160 H   0  0  0  0  0  0  0  0  0  0  0  0
   -0.0098   -0.5965    0.8166 H   0  0  0  0  0  0  0  0  0  0  0  0
   -1.2366    0.8223    0.0000 N   0  0  0  0  0  4  0  0  0  0  0  0
   -2.0336    0.2253    0.0957 H   0  0  0  0  0  0  0  0  0  0  0  0
   -1.2082    1.4662    0.7646 H   0  0  0  0  0  0  0  0  0  0  0  0
   -1.3001    1.3281   -0.8603 H   0  0  0  0  0  0  0  0  0  0  0  0
   -2.1442    0.3542   -3.7289 C   0  0  0  0  0  0  0  0  0  0  0  0
   -2.6552    0.8571   -3.0035 H   0  0  0  0  0  0  0  0  0  0  0  0
   -2.2095   -0.6357   -3.4907 H   0  0  0  0  0  0  0  0  0  0  0  0
   -2.6251    0.5261   -4.6918 H   0  0  0  0  0  0  0  0  0  0  0  0
   -0.3853    0.8804   -3.7308 S   0  0  0  0  0  0  0  0  0  0  0  0
    0.3900   -0.5974   -4.4019 C   0  0  0  0  0  0  0  0  0  0  0  0
    1.3832   -0.5200   -4.3160 H   0  0  0  0  0  0  0  0  0  0  0  0
    0.0721   -1.3982   -3.8947 H   0  0  0  0  0  0  0  0  0  0  0  0
    0.1442   -0.6923   -5.3659 H   0  0  0  0  0  0  0  0  0  0  0  0
  1  5  1  0
  5  8  1  0
  1  2  1  0
  1  3  1  0
  1  4  1  0
  5  6  1  0
  5  7  1  0
  8  9  1  0
  8 10  1  0
  8 11  1  0
 12 16  1  0
 16 17  1  0
 12 13  1  0
 12 14  1  0
 12 15  1  0
 17 18  1  0
 17 19  1  0
 17 20  1  0
M  CHG  1   8   1
M  END
>  <PDB_ID>  (907) 
pdb3f1y

>  <RESIDUE_NAME>  (907) 
LYS   MET

>  <FRAG_NAME>  (907) 
ETAM   MSM

>  <FRAG_ATOM_NUM>  (907) 
fragi: 11  fragj: 9

>  <atom.prop.CHAIN_ID>  (907) 
A A A A A A A A A A A Z Z Z Z Z Z Z Z Z

>  <atom.prop.IS_HEAVY_ATOM>  (907) 
1 0 0 0 1 0 0 1 0 0 0 1 0 0 0 1 1 0 0 0

>  <DIFUSE_FUNC_ATOM>  (907) 
n/a

>  <FINAL_SINGLE_POINT_ENERGY>  (907) 
0

>  <NONCOV_INTER_ENERGY_QM>  (907) 
0

>  <FF_Energy>  (907) 
-4.15

>  <QM_Energy>  (907) 
-10.15

>  <source>  (907) 
ETAM_MSM

>  <Index>  (907) 
5537

$$$$
ETAM-pdb3eh2-B-LYS-304:MSM-pdb3eh2-B-MET-300
     RDKit          3D

 20 18  0  0  0  0  0  0  0  0999 V2000
    1.2371    0.8699   -0.0000 C   0  0  0  0  0  0  0  0  0  0  0  0
    1.0836    1.6451    0.6056 H   0  0  0  0  0  0  0  0  0  0  0  0
    1.4064    1.1857   -0.9283 H   0  0  0  0  0  0  0  0  0  0  0  0
    2.1106    0.3192    0.3492 H   0  0  0  0  0  0  0  0  0  0  0  0
    0.0000    0.0000    0.0000 C   0  0  0  0  0  0  0  0  0  0  0  0
    0.0067   -0.5810   -0.8162 H   0  0  0  0  0  0  0  0  0  0  0  0
    0.0062   -0.5802    0.8160 H   0  0  0  0  0  0  0  0  0  0  0  0
   -1.2371    0.8264    0.0000 N   0  0  0  0  0  4  0  0  0  0  0  0
   -1.5032    1.0247   -0.9429 H   0  0  0  0  0  0  0  0  0  0  0  0
   -1.9709    0.3251    0.4572 H   0  0  0  0  0  0  0  0  0  0  0  0
   -1.0641    1.6828    0.4866 H   0  0  0  0  0  0  0  0  0  0  0  0
   -2.3688   -3.1527    4.2776 C   0  0  0  0  0  0  0  0  0  0  0  0
   -1.4210   -3.4601    4.0477 H   0  0  0  0  0  0  0  0  0  0  0  0
   -2.9800   -3.9435    4.0612 H   0  0  0  0  0  0  0  0  0  0  0  0
   -2.4218   -2.9498    5.3472 H   0  0  0  0  0  0  0  0  0  0  0  0
   -2.8250   -1.7103    3.2971 S   0  0  0  0  0  0  0  0  0  0  0  0
   -1.3377   -1.4594    2.4206 C   0  0  0  0  0  0  0  0  0  0  0  0
   -1.3385   -1.9791    1.5558 H   0  0  0  0  0  0  0  0  0  0  0  0
   -1.2117   -0.4835    2.1987 H   0  0  0  0  0  0  0  0  0  0  0  0
   -0.5442   -1.7617    2.9659 H   0  0  0  0  0  0  0  0  0  0  0  0
  1  5  1  0
  5  8  1  0
  1  2  1  0
  1  3  1  0
  1  4  1  0
  5  6  1  0
  5  7  1  0
  8  9  1  0
  8 10  1  0
  8 11  1  0
 12 16  1  0
 16 17  1  0
 12 13  1  0
 12 14  1  0
 12 15  1  0
 17 18  1  0
 17 19  1  0
 17 20  1  0
M  CHG  1   8   1
M  END
>  <PDB_ID>  (908) 
pdb3eh2

>  <RESIDUE_NAME>  (908) 
LYS   MET

>  <FRAG_NAME>  (908) 
ETAM   MSM

>  <FRAG_ATOM_NUM>  (908) 
fragi: 11  fragj: 9

>  <atom.prop.CHAIN_ID>  (908) 
A A A A A A A A A A A Z Z Z Z Z Z Z Z Z

>  <atom.prop.IS_HEAVY_ATOM>  (908) 
1 0 0 0 1 0 0 1 0 0 0 1 0 0 0 1 1 0 0 0

>  <DIFUSE_FUNC_ATOM>  (908) 
n/a

>  <FINAL_SINGLE_POINT_ENERGY>  (908) 
0

>  <NONCOV_INTER_ENERGY_QM>  (908) 
0

>  <FF_Energy>  (908) 
9.09

>  <QM_Energy>  (908) 
0.95

>  <source>  (908) 
ETAM_MSM

>  <Index>  (908) 
5538

$$$$
ETAM-pdb3f3s-A-LYS-311:MSM-pdb3f3s-A-MET-307
     RDKit          3D

 20 18  0  0  0  0  0  0  0  0999 V2000
    1.2375    0.8870   -0.0000 C   0  0  0  0  0  0  0  0  0  0  0  0
    1.2398    1.4276    0.8394 H   0  0  0  0  0  0  0  0  0  0  0  0
    1.1932    1.4936   -0.7915 H   0  0  0  0  0  0  0  0  0  0  0  0
    2.1623    0.3123   -0.0495 H   0  0  0  0  0  0  0  0  0  0  0  0
    0.0000    0.0000    0.0000 C   0  0  0  0  0  0  0  0  0  0  0  0
   -0.0045   -0.5592   -0.8166 H   0  0  0  0  0  0  0  0  0  0  0  0
   -0.0053   -0.5592    0.8161 H   0  0  0  0  0  0  0  0  0  0  0  0
   -1.2375    0.8725    0.0000 N   0  0  0  0  0  4  0  0  0  0  0  0
   -0.9680    1.8074   -0.2096 H   0  0  0  0  0  0  0  0  0  0  0  0
   -1.8679    0.5320   -0.6909 H   0  0  0  0  0  0  0  0  0  0  0  0
   -1.6578    0.8289    0.9008 H   0  0  0  0  0  0  0  0  0  0  0  0
    0.0268   -1.0560    4.4109 C   0  0  0  0  0  0  0  0  0  0  0  0
    0.5095   -1.8110    3.9181 H   0  0  0  0  0  0  0  0  0  0  0  0
   -0.8982   -1.4237    4.6464 H   0  0  0  0  0  0  0  0  0  0  0  0
    0.5632   -0.8529    5.3379 H   0  0  0  0  0  0  0  0  0  0  0  0
   -0.1105    0.4071    3.3681 S   0  0  0  0  0  0  0  0  0  0  0  0
   -1.5786    1.2253    4.0883 C   0  0  0  0  0  0  0  0  0  0  0  0
   -1.5829    1.0617    5.0697 H   0  0  0  0  0  0  0  0  0  0  0  0
   -1.5220    2.2003    3.9001 H   0  0  0  0  0  0  0  0  0  0  0  0
   -2.3946    0.8388    3.6695 H   0  0  0  0  0  0  0  0  0  0  0  0
  1  5  1  0
  5  8  1  0
  1  2  1  0
  1  3  1  0
  1  4  1  0
  5  6  1  0
  5  7  1  0
  8  9  1  0
  8 10  1  0
  8 11  1  0
 12 16  1  0
 16 17  1  0
 12 13  1  0
 12 14  1  0
 12 15  1  0
 17 18  1  0
 17 19  1  0
 17 20  1  0
M  CHG  1   8   1
M  END
>  <PDB_ID>  (909) 
pdb3f3s

>  <RESIDUE_NAME>  (909) 
LYS   MET

>  <FRAG_NAME>  (909) 
ETAM   MSM

>  <FRAG_ATOM_NUM>  (909) 
fragi: 11  fragj: 9

>  <atom.prop.CHAIN_ID>  (909) 
A A A A A A A A A A A Z Z Z Z Z Z Z Z Z

>  <atom.prop.IS_HEAVY_ATOM>  (909) 
1 0 0 0 1 0 0 1 0 0 0 1 0 0 0 1 1 0 0 0

>  <DIFUSE_FUNC_ATOM>  (909) 
n/a

>  <FINAL_SINGLE_POINT_ENERGY>  (909) 
0

>  <NONCOV_INTER_ENERGY_QM>  (909) 
0

>  <FF_Energy>  (909) 
-4.19

>  <QM_Energy>  (909) 
-11.79

>  <source>  (909) 
ETAM_MSM

>  <Index>  (909) 
5548

$$$$
ETAM-pdb4amq-A-LYS-291:MSM-pdb4amq-A-MET-1
     RDKit          3D

 20 18  0  0  0  0  0  0  0  0999 V2000
    1.2478    0.8683   -0.0000 C   0  0  0  0  0  0  0  0  0  0  0  0
    1.1036    1.6306   -0.6257 H   0  0  0  0  0  0  0  0  0  0  0  0
    2.0186    0.3162   -0.3061 H   0  0  0  0  0  0  0  0  0  0  0  0
    1.4688    1.2634    0.9916 H   0  0  0  0  0  0  0  0  0  0  0  0
    0.0000    0.0000    0.0000 C   0  0  0  0  0  0  0  0  0  0  0  0
    0.0114   -0.5856   -0.8162 H   0  0  0  0  0  0  0  0  0  0  0  0
    0.0110   -0.5855    0.8162 H   0  0  0  0  0  0  0  0  0  0  0  0
   -1.2478    0.8121    0.0000 N   0  0  0  0  0  4  0  0  0  0  0  0
   -1.7497    0.6494   -0.8493 H   0  0  0  0  0  0  0  0  0  0  0  0
   -1.8151    0.5483    0.7799 H   0  0  0  0  0  0  0  0  0  0  0  0
   -1.0130    1.7810    0.0697 H   0  0  0  0  0  0  0  0  0  0  0  0
   -2.6221    1.5760   -3.1335 C   0  0  0  0  0  0  0  0  0  0  0  0
   -3.1469    2.2886   -2.6219 H   0  0  0  0  0  0  0  0  0  0  0  0
   -2.8559    0.6831   -2.6957 H   0  0  0  0  0  0  0  0  0  0  0  0
   -2.9663    1.5617   -4.1676 H   0  0  0  0  0  0  0  0  0  0  0  0
   -0.8530    1.8915   -3.0306 S   0  0  0  0  0  0  0  0  0  0  0  0
   -0.2149    0.4916   -3.9463 C   0  0  0  0  0  0  0  0  0  0  0  0
   -0.1377    0.7309   -4.9157 H   0  0  0  0  0  0  0  0  0  0  0  0
    0.6880    0.2423   -3.5937 H   0  0  0  0  0  0  0  0  0  0  0  0
   -0.8361   -0.2874   -3.8462 H   0  0  0  0  0  0  0  0  0  0  0  0
  1  5  1  0
  5  8  1  0
  1  2  1  0
  1  3  1  0
  1  4  1  0
  5  6  1  0
  5  7  1  0
  8  9  1  0
  8 10  1  0
  8 11  1  0
 12 16  1  0
 16 17  1  0
 12 13  1  0
 12 14  1  0
 12 15  1  0
 17 18  1  0
 17 19  1  0
 17 20  1  0
M  CHG  1   8   1
M  END
>  <PDB_ID>  (910) 
pdb4amq

>  <RESIDUE_NAME>  (910) 
LYS   MET

>  <FRAG_NAME>  (910) 
ETAM   MSM

>  <FRAG_ATOM_NUM>  (910) 
fragi: 11  fragj: 9

>  <atom.prop.CHAIN_ID>  (910) 
A A A A A A A A A A A Z Z Z Z Z Z Z Z Z

>  <atom.prop.IS_HEAVY_ATOM>  (910) 
1 0 0 0 1 0 0 1 0 0 0 1 0 0 0 1 1 0 0 0

>  <DIFUSE_FUNC_ATOM>  (910) 
n/a

>  <FINAL_SINGLE_POINT_ENERGY>  (910) 
0

>  <NONCOV_INTER_ENERGY_QM>  (910) 
0

>  <FF_Energy>  (910) 
-4.41

>  <QM_Energy>  (910) 
-11.92

>  <source>  (910) 
ETAM_MSM

>  <Index>  (910) 
5558

$$$$
ETAM-pdb4ak4-I-LYS-74:MSM-pdb4ak4-E-MET-66
     RDKit          3D

 20 18  0  0  0  0  0  0  0  0999 V2000
    1.2333    0.8525   -0.0000 C   0  0  0  0  0  0  0  0  0  0  0  0
    1.2840    1.3501   -0.8584 H   0  0  0  0  0  0  0  0  0  0  0  0
    2.0304    0.2704    0.1126 H   0  0  0  0  0  0  0  0  0  0  0  0
    1.2007    1.5692    0.8206 H   0  0  0  0  0  0  0  0  0  0  0  0
    0.0000    0.0000    0.0000 C   0  0  0  0  0  0  0  0  0  0  0  0
   -0.0040   -0.5834   -0.8159 H   0  0  0  0  0  0  0  0  0  0  0  0
   -0.0044   -0.5838    0.8164 H   0  0  0  0  0  0  0  0  0  0  0  0
   -1.2333    0.8356   -0.0000 N   0  0  0  0  0  4  0  0  0  0  0  0
   -1.9099    0.4276    0.6120 H   0  0  0  0  0  0  0  0  0  0  0  0
   -1.0086    1.7573    0.3157 H   0  0  0  0  0  0  0  0  0  0  0  0
   -1.6035    0.8790   -0.9277 H   0  0  0  0  0  0  0  0  0  0  0  0
   -4.2112   -0.9465   -0.3762 C   0  0  0  0  0  0  0  0  0  0  0  0
   -4.0935   -0.0960   -0.9415 H   0  0  0  0  0  0  0  0  0  0  0  0
   -5.2168   -0.9952   -0.1695 H   0  0  0  0  0  0  0  0  0  0  0  0
   -3.9265   -1.8129   -0.9732 H   0  0  0  0  0  0  0  0  0  0  0  0
   -3.2637   -0.8147    1.1569 S   0  0  0  0  0  0  0  0  0  0  0  0
   -3.0872   -2.4981    1.6182 C   0  0  0  0  0  0  0  0  0  0  0  0
   -3.9686   -2.8751    1.9266 H   0  0  0  0  0  0  0  0  0  0  0  0
   -2.7635   -3.0467    0.8376 H   0  0  0  0  0  0  0  0  0  0  0  0
   -2.4220   -2.5917    2.3689 H   0  0  0  0  0  0  0  0  0  0  0  0
  1  5  1  0
  5  8  1  0
  1  2  1  0
  1  3  1  0
  1  4  1  0
  5  6  1  0
  5  7  1  0
  8  9  1  0
  8 10  1  0
  8 11  1  0
 12 16  1  0
 16 17  1  0
 12 13  1  0
 12 14  1  0
 12 15  1  0
 17 18  1  0
 17 19  1  0
 17 20  1  0
M  CHG  1   8   1
M  END
>  <PDB_ID>  (911) 
pdb4ak4

>  <RESIDUE_NAME>  (911) 
LYS   MET

>  <FRAG_NAME>  (911) 
ETAM   MSM

>  <FRAG_ATOM_NUM>  (911) 
fragi: 11  fragj: 9

>  <atom.prop.CHAIN_ID>  (911) 
A A A A A A A A A A A Z Z Z Z Z Z Z Z Z

>  <atom.prop.IS_HEAVY_ATOM>  (911) 
1 0 0 0 1 0 0 1 0 0 0 1 0 0 0 1 1 0 0 0

>  <DIFUSE_FUNC_ATOM>  (911) 
n/a

>  <FINAL_SINGLE_POINT_ENERGY>  (911) 
0

>  <NONCOV_INTER_ENERGY_QM>  (911) 
0

>  <FF_Energy>  (911) 
-0.09

>  <QM_Energy>  (911) 
-11.95

>  <source>  (911) 
ETAM_MSM

>  <Index>  (911) 
5570

$$$$
ETAM-pdb3f65-B-LYS-108:MSM-pdb3f65-B-MET-172
     RDKit          3D

 20 18  0  0  0  0  0  0  0  0999 V2000
    1.2415    0.8846    0.0000 C   0  0  0  0  0  0  0  0  0  0  0  0
    1.1494    1.5587    0.7213 H   0  0  0  0  0  0  0  0  0  0  0  0
    1.3168    1.3238   -0.8862 H   0  0  0  0  0  0  0  0  0  0  0  0
    2.1409    0.2959    0.1806 H   0  0  0  0  0  0  0  0  0  0  0  0
    0.0000    0.0000    0.0000 C   0  0  0  0  0  0  0  0  0  0  0  0
    0.0148   -0.5770   -0.8165 H   0  0  0  0  0  0  0  0  0  0  0  0
    0.0142   -0.5777    0.8164 H   0  0  0  0  0  0  0  0  0  0  0  0
   -1.2415    0.8214    0.0000 N   0  0  0  0  0  4  0  0  0  0  0  0
   -0.9975    1.7909    0.0116 H   0  0  0  0  0  0  0  0  0  0  0  0
   -1.7726    0.6190   -0.8224 H   0  0  0  0  0  0  0  0  0  0  0  0
   -1.7838    0.6024    0.8105 H   0  0  0  0  0  0  0  0  0  0  0  0
   -0.6590    0.6844   -4.3566 C   0  0  0  0  0  0  0  0  0  0  0  0
   -0.4658    0.6790   -5.3813 H   0  0  0  0  0  0  0  0  0  0  0  0
   -0.5440    1.6882   -4.1002 H   0  0  0  0  0  0  0  0  0  0  0  0
   -1.7087    0.4254   -4.2184 H   0  0  0  0  0  0  0  0  0  0  0  0
    0.5512   -0.3376   -3.4758 S   0  0  0  0  0  0  0  0  0  0  0  0
    0.1710   -1.9836   -4.0778 C   0  0  0  0  0  0  0  0  0  0  0  0
    0.6399   -2.1388   -4.9484 H   0  0  0  0  0  0  0  0  0  0  0  0
    0.4772   -2.6634   -3.4097 H   0  0  0  0  0  0  0  0  0  0  0  0
   -0.8167   -2.0706   -4.2127 H   0  0  0  0  0  0  0  0  0  0  0  0
  1  5  1  0
  5  8  1  0
  1  2  1  0
  1  3  1  0
  1  4  1  0
  5  6  1  0
  5  7  1  0
  8  9  1  0
  8 10  1  0
  8 11  1  0
 12 16  1  0
 16 17  1  0
 12 13  1  0
 12 14  1  0
 12 15  1  0
 17 18  1  0
 17 19  1  0
 17 20  1  0
M  CHG  1   8   1
M  END
>  <PDB_ID>  (912) 
pdb3f65

>  <RESIDUE_NAME>  (912) 
LYS   MET

>  <FRAG_NAME>  (912) 
ETAM   MSM

>  <FRAG_ATOM_NUM>  (912) 
fragi: 11  fragj: 9

>  <atom.prop.CHAIN_ID>  (912) 
A A A A A A A A A A A Z Z Z Z Z Z Z Z Z

>  <atom.prop.IS_HEAVY_ATOM>  (912) 
1 0 0 0 1 0 0 1 0 0 0 1 0 0 0 1 1 0 0 0

>  <DIFUSE_FUNC_ATOM>  (912) 
n/a

>  <FINAL_SINGLE_POINT_ENERGY>  (912) 
0

>  <NONCOV_INTER_ENERGY_QM>  (912) 
0

>  <FF_Energy>  (912) 
-3.51

>  <QM_Energy>  (912) 
-9.4

>  <source>  (912) 
ETAM_MSM

>  <Index>  (912) 
5579

$$$$
ETAM-pdb3f65-C-LYS-108:MSM-pdb3f65-C-MET-172
     RDKit          3D

 20 18  0  0  0  0  0  0  0  0999 V2000
    1.2600    0.8745    0.0000 C   0  0  0  0  0  0  0  0  0  0  0  0
    1.1344    1.6043    0.6492 H   0  0  0  0  0  0  0  0  0  0  0  0
    1.4061    1.2130   -0.9135 H   0  0  0  0  0  0  0  0  0  0  0  0
    2.1204    0.2764    0.3002 H   0  0  0  0  0  0  0  0  0  0  0  0
    0.0000    0.0000    0.0000 C   0  0  0  0  0  0  0  0  0  0  0  0
    0.0221   -0.5904   -0.8160 H   0  0  0  0  0  0  0  0  0  0  0  0
    0.0213   -0.5912    0.8167 H   0  0  0  0  0  0  0  0  0  0  0  0
   -1.2600    0.7910   -0.0000 N   0  0  0  0  0  4  0  0  0  0  0  0
   -1.0855    1.6931    0.3935 H   0  0  0  0  0  0  0  0  0  0  0  0
   -1.5877    0.8933   -0.9391 H   0  0  0  0  0  0  0  0  0  0  0  0
   -1.9500    0.3158    0.5458 H   0  0  0  0  0  0  0  0  0  0  0  0
   -1.4972    1.6922   -3.8870 C   0  0  0  0  0  0  0  0  0  0  0  0
   -1.4793    1.6955   -4.9336 H   0  0  0  0  0  0  0  0  0  0  0  0
   -1.1522    2.6530   -3.6519 H   0  0  0  0  0  0  0  0  0  0  0  0
   -2.5466    1.6569   -3.5940 H   0  0  0  0  0  0  0  0  0  0  0  0
   -0.3801    0.4235   -3.2249 S   0  0  0  0  0  0  0  0  0  0  0  0
   -1.1491   -1.1040   -3.8055 C   0  0  0  0  0  0  0  0  0  0  0  0
   -1.2677   -1.0554   -4.7961 H   0  0  0  0  0  0  0  0  0  0  0  0
   -0.5603   -1.8766   -3.5738 H   0  0  0  0  0  0  0  0  0  0  0  0
   -2.0382   -1.2129   -3.3642 H   0  0  0  0  0  0  0  0  0  0  0  0
  1  5  1  0
  5  8  1  0
  1  2  1  0
  1  3  1  0
  1  4  1  0
  5  6  1  0
  5  7  1  0
  8  9  1  0
  8 10  1  0
  8 11  1  0
 12 16  1  0
 16 17  1  0
 12 13  1  0
 12 14  1  0
 12 15  1  0
 17 18  1  0
 17 19  1  0
 17 20  1  0
M  CHG  1   8   1
M  END
>  <PDB_ID>  (913) 
pdb3f65

>  <RESIDUE_NAME>  (913) 
LYS   MET

>  <FRAG_NAME>  (913) 
ETAM   MSM

>  <FRAG_ATOM_NUM>  (913) 
fragi: 11  fragj: 9

>  <atom.prop.CHAIN_ID>  (913) 
A A A A A A A A A A A Z Z Z Z Z Z Z Z Z

>  <atom.prop.IS_HEAVY_ATOM>  (913) 
1 0 0 0 1 0 0 1 0 0 0 1 0 0 0 1 1 0 0 0

>  <DIFUSE_FUNC_ATOM>  (913) 
n/a

>  <FINAL_SINGLE_POINT_ENERGY>  (913) 
0

>  <NONCOV_INTER_ENERGY_QM>  (913) 
0

>  <FF_Energy>  (913) 
-3.62

>  <QM_Energy>  (913) 
-13.71

>  <source>  (913) 
ETAM_MSM

>  <Index>  (913) 
5580

$$$$
ETAM-pdb3f65-F-LYS-108:MSM-pdb3f65-F-MET-172
     RDKit          3D

 20 18  0  0  0  0  0  0  0  0999 V2000
    1.2324    0.8769    0.0000 C   0  0  0  0  0  0  0  0  0  0  0  0
    1.2141    1.4546    0.8166 H   0  0  0  0  0  0  0  0  0  0  0  0
    1.2138    1.4555   -0.8160 H   0  0  0  0  0  0  0  0  0  0  0  0
    2.1571    0.2998    0.0001 H   0  0  0  0  0  0  0  0  0  0  0  0
    0.0000    0.0000    0.0000 C   0  0  0  0  0  0  0  0  0  0  0  0
    0.0084   -0.5779   -0.8160 H   0  0  0  0  0  0  0  0  0  0  0  0
    0.0087   -0.5778    0.8164 H   0  0  0  0  0  0  0  0  0  0  0  0
   -1.2324    0.8277   -0.0000 N   0  0  0  0  0  4  0  0  0  0  0  0
   -1.5680    0.9257    0.9381 H   0  0  0  0  0  0  0  0  0  0  0  0
   -1.0270    1.7313   -0.3766 H   0  0  0  0  0  0  0  0  0  0  0  0
   -1.9324    0.3834   -0.5597 H   0  0  0  0  0  0  0  0  0  0  0  0
   -2.7088    2.9410   -1.8933 C   0  0  0  0  0  0  0  0  0  0  0  0
   -2.2545    3.8109   -1.6090 H   0  0  0  0  0  0  0  0  0  0  0  0
   -3.0665    2.5151   -1.0362 H   0  0  0  0  0  0  0  0  0  0  0  0
   -3.5513    3.1836   -2.5409 H   0  0  0  0  0  0  0  0  0  0  0  0
   -1.5319    1.8430   -2.7078 S   0  0  0  0  0  0  0  0  0  0  0  0
   -2.6116    0.5070   -3.2189 C   0  0  0  0  0  0  0  0  0  0  0  0
   -2.8319    0.6070   -4.1901 H   0  0  0  0  0  0  0  0  0  0  0  0
   -2.1525   -0.3700   -3.0705 H   0  0  0  0  0  0  0  0  0  0  0  0
   -3.4565    0.5348   -2.6829 H   0  0  0  0  0  0  0  0  0  0  0  0
  1  5  1  0
  5  8  1  0
  1  2  1  0
  1  3  1  0
  1  4  1  0
  5  6  1  0
  5  7  1  0
  8  9  1  0
  8 10  1  0
  8 11  1  0
 12 16  1  0
 16 17  1  0
 12 13  1  0
 12 14  1  0
 12 15  1  0
 17 18  1  0
 17 19  1  0
 17 20  1  0
M  CHG  1   8   1
M  END
>  <PDB_ID>  (914) 
pdb3f65

>  <RESIDUE_NAME>  (914) 
LYS   MET

>  <FRAG_NAME>  (914) 
ETAM   MSM

>  <FRAG_ATOM_NUM>  (914) 
fragi: 11  fragj: 9

>  <atom.prop.CHAIN_ID>  (914) 
A A A A A A A A A A A Z Z Z Z Z Z Z Z Z

>  <atom.prop.IS_HEAVY_ATOM>  (914) 
1 0 0 0 1 0 0 1 0 0 0 1 0 0 0 1 1 0 0 0

>  <DIFUSE_FUNC_ATOM>  (914) 
n/a

>  <FINAL_SINGLE_POINT_ENERGY>  (914) 
0

>  <NONCOV_INTER_ENERGY_QM>  (914) 
0

>  <FF_Energy>  (914) 
0.46

>  <QM_Energy>  (914) 
-8.63

>  <source>  (914) 
ETAM_MSM

>  <Index>  (914) 
5583

$$$$
ETAM-pdb3f65-G-LYS-108:MSM-pdb3f65-G-MET-172
     RDKit          3D

 20 18  0  0  0  0  0  0  0  0999 V2000
    1.2456    0.8730    0.0000 C   0  0  0  0  0  0  0  0  0  0  0  0
    1.2276    1.4498   -0.8079 H   0  0  0  0  0  0  0  0  0  0  0  0
    2.0449    0.2837   -0.0087 H   0  0  0  0  0  0  0  0  0  0  0  0
    1.2802    1.5060    0.8866 H   0  0  0  0  0  0  0  0  0  0  0  0
    0.0000    0.0000    0.0000 C   0  0  0  0  0  0  0  0  0  0  0  0
    0.0123   -0.5838   -0.8166 H   0  0  0  0  0  0  0  0  0  0  0  0
    0.0123   -0.5836    0.8162 H   0  0  0  0  0  0  0  0  0  0  0  0
   -1.2456    0.8144   -0.0000 N   0  0  0  0  0  4  0  0  0  0  0  0
   -1.9709    0.3109   -0.4682 H   0  0  0  0  0  0  0  0  0  0  0  0
   -1.5209    0.9988    0.9430 H   0  0  0  0  0  0  0  0  0  0  0  0
   -1.0778    1.6778   -0.4751 H   0  0  0  0  0  0  0  0  0  0  0  0
   -3.1179    1.2401   -3.8502 C   0  0  0  0  0  0  0  0  0  0  0  0
   -2.6266    0.3383   -3.8504 H   0  0  0  0  0  0  0  0  0  0  0  0
   -3.1433    1.5343   -4.8337 H   0  0  0  0  0  0  0  0  0  0  0  0
   -4.1400    1.0799   -3.5071 H   0  0  0  0  0  0  0  0  0  0  0  0
   -2.2341    2.4435   -2.8503 S   0  0  0  0  0  0  0  0  0  0  0  0
   -0.5499    1.9121   -3.1510 C   0  0  0  0  0  0  0  0  0  0  0  0
   -0.5269    0.9175   -3.2628 H   0  0  0  0  0  0  0  0  0  0  0  0
   -0.2040    2.3482   -3.9836 H   0  0  0  0  0  0  0  0  0  0  0  0
    0.0272    2.1729   -2.3759 H   0  0  0  0  0  0  0  0  0  0  0  0
  1  5  1  0
  5  8  1  0
  1  2  1  0
  1  3  1  0
  1  4  1  0
  5  6  1  0
  5  7  1  0
  8  9  1  0
  8 10  1  0
  8 11  1  0
 12 16  1  0
 16 17  1  0
 12 13  1  0
 12 14  1  0
 12 15  1  0
 17 18  1  0
 17 19  1  0
 17 20  1  0
M  CHG  1   8   1
M  END
>  <PDB_ID>  (915) 
pdb3f65

>  <RESIDUE_NAME>  (915) 
LYS   MET

>  <FRAG_NAME>  (915) 
ETAM   MSM

>  <FRAG_ATOM_NUM>  (915) 
fragi: 11  fragj: 9

>  <atom.prop.CHAIN_ID>  (915) 
A A A A A A A A A A A Z Z Z Z Z Z Z Z Z

>  <atom.prop.IS_HEAVY_ATOM>  (915) 
1 0 0 0 1 0 0 1 0 0 0 1 0 0 0 1 1 0 0 0

>  <DIFUSE_FUNC_ATOM>  (915) 
n/a

>  <FINAL_SINGLE_POINT_ENERGY>  (915) 
0

>  <NONCOV_INTER_ENERGY_QM>  (915) 
0

>  <FF_Energy>  (915) 
-3.61

>  <QM_Energy>  (915) 
-9.76

>  <source>  (915) 
ETAM_MSM

>  <Index>  (915) 
5584

$$$$
ETAM-pdb4asc-A-LYS-423:MSM-pdb4asc-A-MET-378
     RDKit          3D

 20 18  0  0  0  0  0  0  0  0999 V2000
    1.2322    0.8784    0.0000 C   0  0  0  0  0  0  0  0  0  0  0  0
    1.2131    1.4557    0.8175 H   0  0  0  0  0  0  0  0  0  0  0  0
    1.2131    1.4562   -0.8158 H   0  0  0  0  0  0  0  0  0  0  0  0
    2.1570    0.3015    0.0011 H   0  0  0  0  0  0  0  0  0  0  0  0
    0.0000    0.0000    0.0000 C   0  0  0  0  0  0  0  0  0  0  0  0
    0.0091   -0.5774   -0.8163 H   0  0  0  0  0  0  0  0  0  0  0  0
    0.0085   -0.5769    0.8162 H   0  0  0  0  0  0  0  0  0  0  0  0
   -1.2322    0.8280   -0.0000 N   0  0  0  0  0  4  0  0  0  0  0  0
   -2.0220    0.2502   -0.2115 H   0  0  0  0  0  0  0  0  0  0  0  0
   -1.3554    1.2425    0.9014 H   0  0  0  0  0  0  0  0  0  0  0  0
   -1.1512    1.5471   -0.6910 H   0  0  0  0  0  0  0  0  0  0  0  0
   -2.7301   -1.5257    2.3120 C   0  0  0  0  0  0  0  0  0  0  0  0
   -3.7424   -1.4543    2.2504 H   0  0  0  0  0  0  0  0  0  0  0  0
   -2.3510   -0.6464    1.9715 H   0  0  0  0  0  0  0  0  0  0  0  0
   -2.4586   -1.6303    3.3626 H   0  0  0  0  0  0  0  0  0  0  0  0
   -2.1182   -2.9163    1.3385 S   0  0  0  0  0  0  0  0  0  0  0  0
   -2.0148   -2.1979   -0.2992 C   0  0  0  0  0  0  0  0  0  0  0  0
   -2.6086   -1.3935   -0.3517 H   0  0  0  0  0  0  0  0  0  0  0  0
   -1.0700   -1.9255   -0.4870 H   0  0  0  0  0  0  0  0  0  0  0  0
   -2.3078   -2.8706   -0.9804 H   0  0  0  0  0  0  0  0  0  0  0  0
  1  5  1  0
  5  8  1  0
  1  2  1  0
  1  3  1  0
  1  4  1  0
  5  6  1  0
  5  7  1  0
  8  9  1  0
  8 10  1  0
  8 11  1  0
 12 16  1  0
 16 17  1  0
 12 13  1  0
 12 14  1  0
 12 15  1  0
 17 18  1  0
 17 19  1  0
 17 20  1  0
M  CHG  1   8   1
M  END
>  <PDB_ID>  (916) 
pdb4asc

>  <RESIDUE_NAME>  (916) 
LYS   MET

>  <FRAG_NAME>  (916) 
ETAM   MSM

>  <FRAG_ATOM_NUM>  (916) 
fragi: 11  fragj: 9

>  <atom.prop.CHAIN_ID>  (916) 
A A A A A A A A A A A Z Z Z Z Z Z Z Z Z

>  <atom.prop.IS_HEAVY_ATOM>  (916) 
1 0 0 0 1 0 0 1 0 0 0 1 0 0 0 1 1 0 0 0

>  <DIFUSE_FUNC_ATOM>  (916) 
n/a

>  <FINAL_SINGLE_POINT_ENERGY>  (916) 
0

>  <NONCOV_INTER_ENERGY_QM>  (916) 
0

>  <FF_Energy>  (916) 
12.27

>  <QM_Energy>  (916) 
3.96

>  <source>  (916) 
ETAM_MSM

>  <Index>  (916) 
5585

$$$$
ETAM-pdb3f3s-B-LYS-311:MSM-pdb3f3s-B-MET-307
     RDKit          3D

 20 18  0  0  0  0  0  0  0  0999 V2000
    1.2305    0.8729   -0.0000 C   0  0  0  0  0  0  0  0  0  0  0  0
    1.2152    1.4529    0.8166 H   0  0  0  0  0  0  0  0  0  0  0  0
    1.2155    1.4524   -0.8171 H   0  0  0  0  0  0  0  0  0  0  0  0
    2.1571    0.2990    0.0008 H   0  0  0  0  0  0  0  0  0  0  0  0
    0.0000    0.0000    0.0000 C   0  0  0  0  0  0  0  0  0  0  0  0
    0.0076   -0.5806   -0.8152 H   0  0  0  0  0  0  0  0  0  0  0  0
    0.0074   -0.5800    0.8175 H   0  0  0  0  0  0  0  0  0  0  0  0
   -1.2305    0.8260    0.0000 N   0  0  0  0  0  4  0  0  0  0  0  0
   -1.6164    0.8506   -0.9229 H   0  0  0  0  0  0  0  0  0  0  0  0
   -1.8999    0.4297    0.6300 H   0  0  0  0  0  0  0  0  0  0  0  0
   -1.0094    1.7570    0.2930 H   0  0  0  0  0  0  0  0  0  0  0  0
   -0.1937   -2.3778    3.4629 C   0  0  0  0  0  0  0  0  0  0  0  0
    0.5047   -2.0097    2.8114 H   0  0  0  0  0  0  0  0  0  0  0  0
   -0.1914   -3.3929    3.3305 H   0  0  0  0  0  0  0  0  0  0  0  0
    0.1142   -2.1495    4.4833 H   0  0  0  0  0  0  0  0  0  0  0  0
   -1.8034   -1.6976    3.1140 S   0  0  0  0  0  0  0  0  0  0  0  0
   -1.4205    0.0642    3.0356 C   0  0  0  0  0  0  0  0  0  0  0  0
   -0.7933    0.2313    2.2765 H   0  0  0  0  0  0  0  0  0  0  0  0
   -2.2650    0.5780    2.8947 H   0  0  0  0  0  0  0  0  0  0  0  0
   -0.9939    0.3470    3.8932 H   0  0  0  0  0  0  0  0  0  0  0  0
  1  5  1  0
  5  8  1  0
  1  2  1  0
  1  3  1  0
  1  4  1  0
  5  6  1  0
  5  7  1  0
  8  9  1  0
  8 10  1  0
  8 11  1  0
 12 16  1  0
 16 17  1  0
 12 13  1  0
 12 14  1  0
 12 15  1  0
 17 18  1  0
 17 19  1  0
 17 20  1  0
M  CHG  1   8   1
M  END
>  <PDB_ID>  (917) 
pdb3f3s

>  <RESIDUE_NAME>  (917) 
LYS   MET

>  <FRAG_NAME>  (917) 
ETAM   MSM

>  <FRAG_ATOM_NUM>  (917) 
fragi: 11  fragj: 9

>  <atom.prop.CHAIN_ID>  (917) 
A A A A A A A A A A A Z Z Z Z Z Z Z Z Z

>  <atom.prop.IS_HEAVY_ATOM>  (917) 
1 0 0 0 1 0 0 1 0 0 0 1 0 0 0 1 1 0 0 0

>  <DIFUSE_FUNC_ATOM>  (917) 
n/a

>  <FINAL_SINGLE_POINT_ENERGY>  (917) 
0

>  <NONCOV_INTER_ENERGY_QM>  (917) 
0

>  <FF_Energy>  (917) 
4.71

>  <QM_Energy>  (917) 
-2.48

>  <source>  (917) 
ETAM_MSM

>  <Index>  (917) 
5592

$$$$
ETAM-pdb4awd-B-LYS-165:MSM-pdb4awd-B-MET-160
     RDKit          3D

 20 18  0  0  0  0  0  0  0  0999 V2000
    1.2695    0.8543   -0.0000 C   0  0  0  0  0  0  0  0  0  0  0  0
    1.2051    1.5143   -0.7428 H   0  0  0  0  0  0  0  0  0  0  0  0
    2.0520    0.2548   -0.1390 H   0  0  0  0  0  0  0  0  0  0  0  0
    1.4014    1.3935    0.9382 H   0  0  0  0  0  0  0  0  0  0  0  0
    0.0000    0.0000    0.0000 C   0  0  0  0  0  0  0  0  0  0  0  0
    0.0130   -0.5967   -0.8165 H   0  0  0  0  0  0  0  0  0  0  0  0
    0.0126   -0.5970    0.8161 H   0  0  0  0  0  0  0  0  0  0  0  0
   -1.2695    0.7927    0.0000 N   0  0  0  0  0  4  0  0  0  0  0  0
   -1.3308    1.3125   -0.8493 H   0  0  0  0  0  0  0  0  0  0  0  0
   -2.0454    0.1681    0.0711 H   0  0  0  0  0  0  0  0  0  0  0  0
   -1.2652    1.4166    0.7787 H   0  0  0  0  0  0  0  0  0  0  0  0
   -1.4538    3.1169    3.8300 C   0  0  0  0  0  0  0  0  0  0  0  0
   -1.8376    2.1965    3.9296 H   0  0  0  0  0  0  0  0  0  0  0  0
   -2.0961    3.6881    3.3161 H   0  0  0  0  0  0  0  0  0  0  0  0
   -1.2719    3.5513    4.8131 H   0  0  0  0  0  0  0  0  0  0  0  0
    0.1491    3.0353    2.9565 S   0  0  0  0  0  0  0  0  0  0  0  0
    0.5784    4.7789    2.9393 C   0  0  0  0  0  0  0  0  0  0  0  0
    1.5476    4.8815    2.7118 H   0  0  0  0  0  0  0  0  0  0  0  0
    0.0231    5.2526    2.2551 H   0  0  0  0  0  0  0  0  0  0  0  0
    0.4046    5.1741    3.8417 H   0  0  0  0  0  0  0  0  0  0  0  0
  1  5  1  0
  5  8  1  0
  1  2  1  0
  1  3  1  0
  1  4  1  0
  5  6  1  0
  5  7  1  0
  8  9  1  0
  8 10  1  0
  8 11  1  0
 12 16  1  0
 16 17  1  0
 12 13  1  0
 12 14  1  0
 12 15  1  0
 17 18  1  0
 17 19  1  0
 17 20  1  0
M  CHG  1   8   1
M  END
>  <PDB_ID>  (918) 
pdb4awd

>  <RESIDUE_NAME>  (918) 
LYS   MET

>  <FRAG_NAME>  (918) 
ETAM   MSM

>  <FRAG_ATOM_NUM>  (918) 
fragi: 11  fragj: 9

>  <atom.prop.CHAIN_ID>  (918) 
A A A A A A A A A A A Z Z Z Z Z Z Z Z Z

>  <atom.prop.IS_HEAVY_ATOM>  (918) 
1 0 0 0 1 0 0 1 0 0 0 1 0 0 0 1 1 0 0 0

>  <DIFUSE_FUNC_ATOM>  (918) 
n/a

>  <FINAL_SINGLE_POINT_ENERGY>  (918) 
0

>  <NONCOV_INTER_ENERGY_QM>  (918) 
0

>  <FF_Energy>  (918) 
-4.41

>  <QM_Energy>  (918) 
-10.77

>  <source>  (918) 
ETAM_MSM

>  <Index>  (918) 
5597

$$$$
ETAM-pdb4as2-C-LYS-24:MSM-pdb4as2-B-MET-297
     RDKit          3D

 20 18  0  0  0  0  0  0  0  0999 V2000
    1.2135    0.8874   -0.0000 C   0  0  0  0  0  0  0  0  0  0  0  0
    1.2157    1.4315    0.8012 H   0  0  0  0  0  0  0  0  0  0  0  0
    1.2524    1.3814   -0.8314 H   0  0  0  0  0  0  0  0  0  0  0  0
    2.0540    0.1945    0.0404 H   0  0  0  0  0  0  0  0  0  0  0  0
    0.0000    0.0000    0.0000 C   0  0  0  0  0  0  0  0  0  0  0  0
    0.0169   -0.5779   -0.8165 H   0  0  0  0  0  0  0  0  0  0  0  0
    0.0170   -0.5778    0.8164 H   0  0  0  0  0  0  0  0  0  0  0  0
   -1.2135    0.8177    0.0000 N   0  0  0  0  0  4  0  0  0  0  0  0
   -0.9733    1.7895   -0.0746 H   0  0  0  0  0  0  0  0  0  0  0  0
   -1.7977    0.5663   -0.7770 H   0  0  0  0  0  0  0  0  0  0  0  0
   -1.7255    0.6740    0.8519 H   0  0  0  0  0  0  0  0  0  0  0  0
   -3.3278   -1.8666   -2.9703 C   0  0  0  0  0  0  0  0  0  0  0  0
   -3.2116   -0.9234   -3.4022 H   0  0  0  0  0  0  0  0  0  0  0  0
   -4.3494   -2.0502   -3.0830 H   0  0  0  0  0  0  0  0  0  0  0  0
   -2.7852   -2.5864   -3.5831 H   0  0  0  0  0  0  0  0  0  0  0  0
   -2.9023   -1.7920   -1.1852 S   0  0  0  0  0  0  0  0  0  0  0  0
   -3.9852   -3.0629   -0.4798 C   0  0  0  0  0  0  0  0  0  0  0  0
   -4.0490   -2.9251    0.5063 H   0  0  0  0  0  0  0  0  0  0  0  0
   -4.8898   -2.9859   -0.8931 H   0  0  0  0  0  0  0  0  0  0  0  0
   -3.5992   -3.9620   -0.6722 H   0  0  0  0  0  0  0  0  0  0  0  0
  1  5  1  0
  5  8  1  0
  1  2  1  0
  1  3  1  0
  1  4  1  0
  5  6  1  0
  5  7  1  0
  8  9  1  0
  8 10  1  0
  8 11  1  0
 12 16  1  0
 16 17  1  0
 12 13  1  0
 12 14  1  0
 12 15  1  0
 17 18  1  0
 17 19  1  0
 17 20  1  0
M  CHG  1   8   1
M  END
>  <PDB_ID>  (919) 
pdb4as2

>  <RESIDUE_NAME>  (919) 
LYS   MET

>  <FRAG_NAME>  (919) 
ETAM   MSM

>  <FRAG_ATOM_NUM>  (919) 
fragi: 11  fragj: 9

>  <atom.prop.CHAIN_ID>  (919) 
A A A A A A A A A A A Z Z Z Z Z Z Z Z Z

>  <atom.prop.IS_HEAVY_ATOM>  (919) 
1 0 0 0 1 0 0 1 0 0 0 1 0 0 0 1 1 0 0 0

>  <DIFUSE_FUNC_ATOM>  (919) 
n/a

>  <FINAL_SINGLE_POINT_ENERGY>  (919) 
0

>  <NONCOV_INTER_ENERGY_QM>  (919) 
0

>  <FF_Energy>  (919) 
-5.64

>  <QM_Energy>  (919) 
-13.83

>  <source>  (919) 
ETAM_MSM

>  <Index>  (919) 
5599

$$$$
ETAM-pdb3fbg-B-LYS-305:MSM-pdb3fbg-B-MET-327
     RDKit          3D

 20 18  0  0  0  0  0  0  0  0999 V2000
    1.2321    0.8744    0.0000 C   0  0  0  0  0  0  0  0  0  0  0  0
    1.2157    1.4522    0.8171 H   0  0  0  0  0  0  0  0  0  0  0  0
    1.2152    1.4524   -0.8165 H   0  0  0  0  0  0  0  0  0  0  0  0
    2.1560    0.2960    0.0007 H   0  0  0  0  0  0  0  0  0  0  0  0
    0.0000    0.0000    0.0000 C   0  0  0  0  0  0  0  0  0  0  0  0
    0.0071   -0.5779   -0.8160 H   0  0  0  0  0  0  0  0  0  0  0  0
    0.0068   -0.5778    0.8169 H   0  0  0  0  0  0  0  0  0  0  0  0
   -1.2321    0.8295   -0.0000 N   0  0  0  0  0  4  0  0  0  0  0  0
   -1.9876    0.3041    0.3913 H   0  0  0  0  0  0  0  0  0  0  0  0
   -1.0792    1.6533    0.5470 H   0  0  0  0  0  0  0  0  0  0  0  0
   -1.4574    1.0907   -0.9388 H   0  0  0  0  0  0  0  0  0  0  0  0
   -0.5477    2.7385    4.3194 C   0  0  0  0  0  0  0  0  0  0  0  0
   -1.3558    3.2710    3.9547 H   0  0  0  0  0  0  0  0  0  0  0  0
    0.0395    3.4517    4.7825 H   0  0  0  0  0  0  0  0  0  0  0  0
   -0.9142    2.0559    5.0860 H   0  0  0  0  0  0  0  0  0  0  0  0
    0.3520    1.9415    2.9769 S   0  0  0  0  0  0  0  0  0  0  0  0
    1.4381    0.8030    3.8559 C   0  0  0  0  0  0  0  0  0  0  0  0
    1.8353    0.1573    3.2052 H   0  0  0  0  0  0  0  0  0  0  0  0
    2.1669    1.3207    4.3034 H   0  0  0  0  0  0  0  0  0  0  0  0
    0.9090    0.3052    4.5420 H   0  0  0  0  0  0  0  0  0  0  0  0
  1  5  1  0
  5  8  1  0
  1  2  1  0
  1  3  1  0
  1  4  1  0
  5  6  1  0
  5  7  1  0
  8  9  1  0
  8 10  1  0
  8 11  1  0
 12 16  1  0
 16 17  1  0
 12 13  1  0
 12 14  1  0
 12 15  1  0
 17 18  1  0
 17 19  1  0
 17 20  1  0
M  CHG  1   8   1
M  END
>  <PDB_ID>  (920) 
pdb3fbg

>  <RESIDUE_NAME>  (920) 
LYS   MET

>  <FRAG_NAME>  (920) 
ETAM   MSM

>  <FRAG_ATOM_NUM>  (920) 
fragi: 11  fragj: 9

>  <atom.prop.CHAIN_ID>  (920) 
A A A A A A A A A A A Z Z Z Z Z Z Z Z Z

>  <atom.prop.IS_HEAVY_ATOM>  (920) 
1 0 0 0 1 0 0 1 0 0 0 1 0 0 0 1 1 0 0 0

>  <DIFUSE_FUNC_ATOM>  (920) 
n/a

>  <FINAL_SINGLE_POINT_ENERGY>  (920) 
0

>  <NONCOV_INTER_ENERGY_QM>  (920) 
0

>  <FF_Energy>  (920) 
-0.24

>  <QM_Energy>  (920) 
-11.76

>  <source>  (920) 
ETAM_MSM

>  <Index>  (920) 
5603

$$$$
ETAM-pdb3fav-C-LYS-5:MSM-pdb3fav-C-MET-1
     RDKit          3D

 20 18  0  0  0  0  0  0  0  0999 V2000
    1.2452    0.8744   -0.0000 C   0  0  0  0  0  0  0  0  0  0  0  0
    1.1615    1.5456    0.7294 H   0  0  0  0  0  0  0  0  0  0  0  0
    1.3138    1.3281   -0.8820 H   0  0  0  0  0  0  0  0  0  0  0  0
    2.1474    0.2854    0.1655 H   0  0  0  0  0  0  0  0  0  0  0  0
    0.0000    0.0000    0.0000 C   0  0  0  0  0  0  0  0  0  0  0  0
    0.0101   -0.5802   -0.8161 H   0  0  0  0  0  0  0  0  0  0  0  0
    0.0101   -0.5804    0.8162 H   0  0  0  0  0  0  0  0  0  0  0  0
   -1.2452    0.8217   -0.0000 N   0  0  0  0  0  4  0  0  0  0  0  0
   -1.7245    0.6947   -0.8669 H   0  0  0  0  0  0  0  0  0  0  0  0
   -1.8327    0.5307    0.7543 H   0  0  0  0  0  0  0  0  0  0  0  0
   -1.0045    1.7848    0.1126 H   0  0  0  0  0  0  0  0  0  0  0  0
   -1.0914   -0.7389    3.5161 C   0  0  0  0  0  0  0  0  0  0  0  0
   -0.5163   -0.2278    2.8257 H   0  0  0  0  0  0  0  0  0  0  0  0
   -0.6700   -1.6824    3.5500 H   0  0  0  0  0  0  0  0  0  0  0  0
   -0.9538   -0.2684    4.4896 H   0  0  0  0  0  0  0  0  0  0  0  0
   -2.8263   -0.8437    2.9369 S   0  0  0  0  0  0  0  0  0  0  0  0
   -3.5676   -2.0758    3.9747 C   0  0  0  0  0  0  0  0  0  0  0  0
   -3.0064   -2.2188    4.7954 H   0  0  0  0  0  0  0  0  0  0  0  0
   -4.4861   -1.7821    4.2567 H   0  0  0  0  0  0  0  0  0  0  0  0
   -3.6434   -2.9448    3.4775 H   0  0  0  0  0  0  0  0  0  0  0  0
  1  5  1  0
  5  8  1  0
  1  2  1  0
  1  3  1  0
  1  4  1  0
  5  6  1  0
  5  7  1  0
  8  9  1  0
  8 10  1  0
  8 11  1  0
 12 16  1  0
 16 17  1  0
 12 13  1  0
 12 14  1  0
 12 15  1  0
 17 18  1  0
 17 19  1  0
 17 20  1  0
M  CHG  1   8   1
M  END
>  <PDB_ID>  (921) 
pdb3fav

>  <RESIDUE_NAME>  (921) 
LYS   MET

>  <FRAG_NAME>  (921) 
ETAM   MSM

>  <FRAG_ATOM_NUM>  (921) 
fragi: 11  fragj: 9

>  <atom.prop.CHAIN_ID>  (921) 
A A A A A A A A A A A Z Z Z Z Z Z Z Z Z

>  <atom.prop.IS_HEAVY_ATOM>  (921) 
1 0 0 0 1 0 0 1 0 0 0 1 0 0 0 1 1 0 0 0

>  <DIFUSE_FUNC_ATOM>  (921) 
n/a

>  <FINAL_SINGLE_POINT_ENERGY>  (921) 
0

>  <NONCOV_INTER_ENERGY_QM>  (921) 
0

>  <FF_Energy>  (921) 
-3.97

>  <QM_Energy>  (921) 
-9.46

>  <source>  (921) 
ETAM_MSM

>  <Index>  (921) 
5605

$$$$
ETAM-pdb4ay9-X-LYS-242:MSM-pdb4ay9-X-MET-265
     RDKit          3D

 20 18  0  0  0  0  0  0  0  0999 V2000
    1.2458    0.8851   -0.0000 C   0  0  0  0  0  0  0  0  0  0  0  0
    2.0407    0.3142    0.1784 H   0  0  0  0  0  0  0  0  0  0  0  0
    1.1461    1.5725    0.7110 H   0  0  0  0  0  0  0  0  0  0  0  0
    1.3875    1.3899   -0.9556 H   0  0  0  0  0  0  0  0  0  0  0  0
    0.0000    0.0000    0.0000 C   0  0  0  0  0  0  0  0  0  0  0  0
    0.0173   -0.5791   -0.8161 H   0  0  0  0  0  0  0  0  0  0  0  0
    0.0170   -0.5791    0.8166 H   0  0  0  0  0  0  0  0  0  0  0  0
   -1.2458    0.8142    0.0000 N   0  0  0  0  0  4  0  0  0  0  0  0
   -1.7746    0.6113    0.8241 H   0  0  0  0  0  0  0  0  0  0  0  0
   -1.0076    1.7847   -0.0138 H   0  0  0  0  0  0  0  0  0  0  0  0
   -1.7875    0.5904   -0.8094 H   0  0  0  0  0  0  0  0  0  0  0  0
   -0.9510    4.1677   -2.7694 C   0  0  0  0  0  0  0  0  0  0  0  0
   -1.4179    3.4875   -3.3745 H   0  0  0  0  0  0  0  0  0  0  0  0
    0.0518    3.9972   -2.8797 H   0  0  0  0  0  0  0  0  0  0  0  0
   -1.1766    5.1703   -3.1325 H   0  0  0  0  0  0  0  0  0  0  0  0
   -1.4512    3.9372   -1.0489 S   0  0  0  0  0  0  0  0  0  0  0  0
   -3.2362    3.8461   -1.2096 C   0  0  0  0  0  0  0  0  0  0  0  0
   -3.4952    2.9406   -1.5478 H   0  0  0  0  0  0  0  0  0  0  0  0
   -3.6603    4.0019   -0.3173 H   0  0  0  0  0  0  0  0  0  0  0  0
   -3.5499    4.5453   -1.8533 H   0  0  0  0  0  0  0  0  0  0  0  0
  1  5  1  0
  5  8  1  0
  1  2  1  0
  1  3  1  0
  1  4  1  0
  5  6  1  0
  5  7  1  0
  8  9  1  0
  8 10  1  0
  8 11  1  0
 12 16  1  0
 16 17  1  0
 12 13  1  0
 12 14  1  0
 12 15  1  0
 17 18  1  0
 17 19  1  0
 17 20  1  0
M  CHG  1   8   1
M  END
>  <PDB_ID>  (922) 
pdb4ay9

>  <RESIDUE_NAME>  (922) 
LYS   MET

>  <FRAG_NAME>  (922) 
ETAM   MSM

>  <FRAG_ATOM_NUM>  (922) 
fragi: 11  fragj: 9

>  <atom.prop.CHAIN_ID>  (922) 
A A A A A A A A A A A Z Z Z Z Z Z Z Z Z

>  <atom.prop.IS_HEAVY_ATOM>  (922) 
1 0 0 0 1 0 0 1 0 0 0 1 0 0 0 1 1 0 0 0

>  <DIFUSE_FUNC_ATOM>  (922) 
n/a

>  <FINAL_SINGLE_POINT_ENERGY>  (922) 
0

>  <NONCOV_INTER_ENERGY_QM>  (922) 
0

>  <FF_Energy>  (922) 
-5.11

>  <QM_Energy>  (922) 
-14.32

>  <source>  (922) 
ETAM_MSM

>  <Index>  (922) 
5610

$$$$
ETAM-pdb4ay9-Z-LYS-242:MSM-pdb4ay9-Z-MET-265
     RDKit          3D

 20 18  0  0  0  0  0  0  0  0999 V2000
    1.2512    0.8825   -0.0000 C   0  0  0  0  0  0  0  0  0  0  0  0
    2.0446    0.3005    0.1558 H   0  0  0  0  0  0  0  0  0  0  0  0
    1.1639    1.5486    0.7349 H   0  0  0  0  0  0  0  0  0  0  0  0
    1.3795    1.4110   -0.9447 H   0  0  0  0  0  0  0  0  0  0  0  0
    0.0000    0.0000    0.0000 C   0  0  0  0  0  0  0  0  0  0  0  0
    0.0164   -0.5807   -0.8157 H   0  0  0  0  0  0  0  0  0  0  0  0
    0.0163   -0.5806    0.8165 H   0  0  0  0  0  0  0  0  0  0  0  0
   -1.2512    0.8127    0.0000 N   0  0  0  0  0  4  0  0  0  0  0  0
   -1.2600    1.4045    0.8051 H   0  0  0  0  0  0  0  0  0  0  0  0
   -1.2822    1.3707   -0.8277 H   0  0  0  0  0  0  0  0  0  0  0  0
   -2.0415    0.2018    0.0231 H   0  0  0  0  0  0  0  0  0  0  0  0
   -0.9647    4.1836   -2.6911 C   0  0  0  0  0  0  0  0  0  0  0  0
   -1.4160    3.4814   -3.2798 H   0  0  0  0  0  0  0  0  0  0  0  0
    0.0403    4.0269   -2.7854 H   0  0  0  0  0  0  0  0  0  0  0  0
   -1.2075    5.1753   -3.0728 H   0  0  0  0  0  0  0  0  0  0  0  0
   -1.4756    3.9851   -0.9666 S   0  0  0  0  0  0  0  0  0  0  0  0
   -3.2516    3.8117   -1.1398 C   0  0  0  0  0  0  0  0  0  0  0  0
   -3.7045    4.6255   -0.7746 H   0  0  0  0  0  0  0  0  0  0  0  0
   -3.4850    3.7075   -2.1079 H   0  0  0  0  0  0  0  0  0  0  0  0
   -3.5602    3.0052   -0.6346 H   0  0  0  0  0  0  0  0  0  0  0  0
  1  5  1  0
  5  8  1  0
  1  2  1  0
  1  3  1  0
  1  4  1  0
  5  6  1  0
  5  7  1  0
  8  9  1  0
  8 10  1  0
  8 11  1  0
 12 16  1  0
 16 17  1  0
 12 13  1  0
 12 14  1  0
 12 15  1  0
 17 18  1  0
 17 19  1  0
 17 20  1  0
M  CHG  1   8   1
M  END
>  <PDB_ID>  (923) 
pdb4ay9

>  <RESIDUE_NAME>  (923) 
LYS   MET

>  <FRAG_NAME>  (923) 
ETAM   MSM

>  <FRAG_ATOM_NUM>  (923) 
fragi: 11  fragj: 9

>  <atom.prop.CHAIN_ID>  (923) 
A A A A A A A A A A A Z Z Z Z Z Z Z Z Z

>  <atom.prop.IS_HEAVY_ATOM>  (923) 
1 0 0 0 1 0 0 1 0 0 0 1 0 0 0 1 1 0 0 0

>  <DIFUSE_FUNC_ATOM>  (923) 
n/a

>  <FINAL_SINGLE_POINT_ENERGY>  (923) 
0

>  <NONCOV_INTER_ENERGY_QM>  (923) 
0

>  <FF_Energy>  (923) 
-4.78

>  <QM_Energy>  (923) 
-12.89

>  <source>  (923) 
ETAM_MSM

>  <Index>  (923) 
5612

$$$$
ETAM-pdb3fcp-A-LYS-274:MSM-pdb3fcp-A-MET-303
     RDKit          3D

 20 18  0  0  0  0  0  0  0  0999 V2000
    1.2446    0.9025   -0.0000 C   0  0  0  0  0  0  0  0  0  0  0  0
    1.2354    1.4409    0.8323 H   0  0  0  0  0  0  0  0  0  0  0  0
    1.2037    1.4857   -0.8002 H   0  0  0  0  0  0  0  0  0  0  0  0
    2.1579    0.3086   -0.0337 H   0  0  0  0  0  0  0  0  0  0  0  0
    0.0000    0.0000    0.0000 C   0  0  0  0  0  0  0  0  0  0  0  0
    0.0306   -0.5787   -0.8164 H   0  0  0  0  0  0  0  0  0  0  0  0
    0.0300   -0.5788    0.8165 H   0  0  0  0  0  0  0  0  0  0  0  0
   -1.2446    0.7981    0.0000 N   0  0  0  0  0  4  0  0  0  0  0  0
   -1.9634    0.3012    0.4893 H   0  0  0  0  0  0  0  0  0  0  0  0
   -1.0812    1.6757    0.4539 H   0  0  0  0  0  0  0  0  0  0  0  0
   -1.5386    0.9627   -0.9431 H   0  0  0  0  0  0  0  0  0  0  0  0
    0.9903    4.2804   -2.5980 C   0  0  0  0  0  0  0  0  0  0  0  0
    1.6530    3.4852   -2.4903 H   0  0  0  0  0  0  0  0  0  0  0  0
    1.5981    5.1169   -2.4754 H   0  0  0  0  0  0  0  0  0  0  0  0
    0.6356    4.2770   -3.6286 H   0  0  0  0  0  0  0  0  0  0  0  0
   -0.2835    4.2264   -1.3025 S   0  0  0  0  0  0  0  0  0  0  0  0
   -1.2031    5.6525   -1.6493 C   0  0  0  0  0  0  0  0  0  0  0  0
   -2.1236    5.6033   -1.2332 H   0  0  0  0  0  0  0  0  0  0  0  0
   -0.7452    6.4791   -1.2885 H   0  0  0  0  0  0  0  0  0  0  0  0
   -1.3222    5.7766   -2.6460 H   0  0  0  0  0  0  0  0  0  0  0  0
  1  5  1  0
  5  8  1  0
  1  2  1  0
  1  3  1  0
  1  4  1  0
  5  6  1  0
  5  7  1  0
  8  9  1  0
  8 10  1  0
  8 11  1  0
 12 16  1  0
 16 17  1  0
 12 13  1  0
 12 14  1  0
 12 15  1  0
 17 18  1  0
 17 19  1  0
 17 20  1  0
M  CHG  1   8   1
M  END
>  <PDB_ID>  (924) 
pdb3fcp

>  <RESIDUE_NAME>  (924) 
LYS   MET

>  <FRAG_NAME>  (924) 
ETAM   MSM

>  <FRAG_ATOM_NUM>  (924) 
fragi: 11  fragj: 9

>  <atom.prop.CHAIN_ID>  (924) 
A A A A A A A A A A A Z Z Z Z Z Z Z Z Z

>  <atom.prop.IS_HEAVY_ATOM>  (924) 
1 0 0 0 1 0 0 1 0 0 0 1 0 0 0 1 1 0 0 0

>  <DIFUSE_FUNC_ATOM>  (924) 
n/a

>  <FINAL_SINGLE_POINT_ENERGY>  (924) 
0

>  <NONCOV_INTER_ENERGY_QM>  (924) 
0

>  <FF_Energy>  (924) 
-5.39

>  <QM_Energy>  (924) 
-11.7

>  <source>  (924) 
ETAM_MSM

>  <Index>  (924) 
5620

$$$$
ETAM-pdb3fd5-B-LYS-280:MSM-pdb3fd5-B-MET-68
     RDKit          3D

 20 18  0  0  0  0  0  0  0  0999 V2000
    1.2190    0.8901    0.0000 C   0  0  0  0  0  0  0  0  0  0  0  0
    1.1075    1.5891   -0.6962 H   0  0  0  0  0  0  0  0  0  0  0  0
    2.0215    0.3367   -0.1832 H   0  0  0  0  0  0  0  0  0  0  0  0
    1.3392    1.3751    0.9688 H   0  0  0  0  0  0  0  0  0  0  0  0
    0.0000    0.0000    0.0000 C   0  0  0  0  0  0  0  0  0  0  0  0
    0.0089   -0.5689   -0.8158 H   0  0  0  0  0  0  0  0  0  0  0  0
    0.0086   -0.5689    0.8165 H   0  0  0  0  0  0  0  0  0  0  0  0
   -1.2190    0.8411    0.0000 N   0  0  0  0  0  4  0  0  0  0  0  0
   -1.6787    0.7654    0.8863 H   0  0  0  0  0  0  0  0  0  0  0  0
   -0.9675    1.7957   -0.1633 H   0  0  0  0  0  0  0  0  0  0  0  0
   -1.8390    0.5334   -0.7227 H   0  0  0  0  0  0  0  0  0  0  0  0
   -4.7988    1.0458   -2.1433 C   0  0  0  0  0  0  0  0  0  0  0  0
   -3.9968    0.5016   -2.5091 H   0  0  0  0  0  0  0  0  0  0  0  0
   -4.9379    1.7924   -2.8481 H   0  0  0  0  0  0  0  0  0  0  0  0
   -5.6779    0.4014   -2.1541 H   0  0  0  0  0  0  0  0  0  0  0  0
   -4.3816    1.7742   -0.5248 S   0  0  0  0  0  0  0  0  0  0  0  0
   -5.7780    2.8870   -0.2384 C   0  0  0  0  0  0  0  0  0  0  0  0
   -6.2355    2.6259    0.6095 H   0  0  0  0  0  0  0  0  0  0  0  0
   -5.4409    3.8237   -0.1662 H   0  0  0  0  0  0  0  0  0  0  0  0
   -6.4156    2.8151   -1.0034 H   0  0  0  0  0  0  0  0  0  0  0  0
  1  5  1  0
  5  8  1  0
  1  2  1  0
  1  3  1  0
  1  4  1  0
  5  6  1  0
  5  7  1  0
  8  9  1  0
  8 10  1  0
  8 11  1  0
 12 16  1  0
 16 17  1  0
 12 13  1  0
 12 14  1  0
 12 15  1  0
 17 18  1  0
 17 19  1  0
 17 20  1  0
M  CHG  1   8   1
M  END
>  <PDB_ID>  (925) 
pdb3fd5

>  <RESIDUE_NAME>  (925) 
LYS   MET

>  <FRAG_NAME>  (925) 
ETAM   MSM

>  <FRAG_ATOM_NUM>  (925) 
fragi: 11  fragj: 9

>  <atom.prop.CHAIN_ID>  (925) 
A A A A A A A A A A A Z Z Z Z Z Z Z Z Z

>  <atom.prop.IS_HEAVY_ATOM>  (925) 
1 0 0 0 1 0 0 1 0 0 0 1 0 0 0 1 1 0 0 0

>  <DIFUSE_FUNC_ATOM>  (925) 
n/a

>  <FINAL_SINGLE_POINT_ENERGY>  (925) 
0

>  <NONCOV_INTER_ENERGY_QM>  (925) 
0

>  <FF_Energy>  (925) 
-4.96

>  <QM_Energy>  (925) 
-11.52

>  <source>  (925) 
ETAM_MSM

>  <Index>  (925) 
5628

$$$$
ETAM-pdb4b6x-B-LYS-165:MSM-pdb4b6x-B-MET-168
     RDKit          3D

 20 18  0  0  0  0  0  0  0  0999 V2000
    1.2210    0.8724    0.0000 C   0  0  0  0  0  0  0  0  0  0  0  0
    1.0798    1.6308    0.6445 H   0  0  0  0  0  0  0  0  0  0  0  0
    1.3489    1.2539   -0.9217 H   0  0  0  0  0  0  0  0  0  0  0  0
    2.1317    0.3454    0.2845 H   0  0  0  0  0  0  0  0  0  0  0  0
    0.0000    0.0000    0.0000 C   0  0  0  0  0  0  0  0  0  0  0  0
   -0.0163   -0.5591   -0.8163 H   0  0  0  0  0  0  0  0  0  0  0  0
   -0.0175   -0.5595    0.8163 H   0  0  0  0  0  0  0  0  0  0  0  0
   -1.2210    0.8868    0.0000 N   0  0  0  0  0  4  0  0  0  0  0  0
   -0.9342    1.8282    0.1537 H   0  0  0  0  0  0  0  0  0  0  0  0
   -1.6761    0.8069   -0.8819 H   0  0  0  0  0  0  0  0  0  0  0  0
   -1.8325    0.5918    0.7294 H   0  0  0  0  0  0  0  0  0  0  0  0
    0.3739    3.3962   -4.2813 C   0  0  0  0  0  0  0  0  0  0  0  0
    0.7081    4.2709   -3.8302 H   0  0  0  0  0  0  0  0  0  0  0  0
    0.1998    3.6814   -5.2657 H   0  0  0  0  0  0  0  0  0  0  0  0
    1.1978    2.6827   -4.2796 H   0  0  0  0  0  0  0  0  0  0  0  0
   -1.1691    2.8334   -3.5038 S   0  0  0  0  0  0  0  0  0  0  0  0
   -0.9168    3.1941   -1.7787 C   0  0  0  0  0  0  0  0  0  0  0  0
   -0.0873    3.7467   -1.6630 H   0  0  0  0  0  0  0  0  0  0  0  0
   -1.7019    3.7031   -1.4185 H   0  0  0  0  0  0  0  0  0  0  0  0
   -0.8159    2.3403   -1.2631 H   0  0  0  0  0  0  0  0  0  0  0  0
  1  5  1  0
  5  8  1  0
  1  2  1  0
  1  3  1  0
  1  4  1  0
  5  6  1  0
  5  7  1  0
  8  9  1  0
  8 10  1  0
  8 11  1  0
 12 16  1  0
 16 17  1  0
 12 13  1  0
 12 14  1  0
 12 15  1  0
 17 18  1  0
 17 19  1  0
 17 20  1  0
M  CHG  1   8   1
M  END
>  <PDB_ID>  (926) 
pdb4b6x

>  <RESIDUE_NAME>  (926) 
LYS   MET

>  <FRAG_NAME>  (926) 
ETAM   MSM

>  <FRAG_ATOM_NUM>  (926) 
fragi: 11  fragj: 9

>  <atom.prop.CHAIN_ID>  (926) 
A A A A A A A A A A A Z Z Z Z Z Z Z Z Z

>  <atom.prop.IS_HEAVY_ATOM>  (926) 
1 0 0 0 1 0 0 1 0 0 0 1 0 0 0 1 1 0 0 0

>  <DIFUSE_FUNC_ATOM>  (926) 
n/a

>  <FINAL_SINGLE_POINT_ENERGY>  (926) 
0

>  <NONCOV_INTER_ENERGY_QM>  (926) 
0

>  <FF_Energy>  (926) 
22.8

>  <QM_Energy>  (926) 
5.88

>  <source>  (926) 
ETAM_MSM

>  <Index>  (926) 
5634

$$$$
ETAM-pdb3fcp-C-LYS-274:MSM-pdb3fcp-C-MET-303
     RDKit          3D

 20 18  0  0  0  0  0  0  0  0999 V2000
    1.2536    0.8807   -0.0000 C   0  0  0  0  0  0  0  0  0  0  0  0
    1.2366    1.4502    0.8079 H   0  0  0  0  0  0  0  0  0  0  0  0
    1.2526    1.4262   -0.8251 H   0  0  0  0  0  0  0  0  0  0  0  0
    2.1525    0.2645    0.0190 H   0  0  0  0  0  0  0  0  0  0  0  0
    0.0000    0.0000    0.0000 C   0  0  0  0  0  0  0  0  0  0  0  0
    0.0179   -0.5829   -0.8157 H   0  0  0  0  0  0  0  0  0  0  0  0
    0.0170   -0.5831    0.8165 H   0  0  0  0  0  0  0  0  0  0  0  0
   -1.2536    0.8084   -0.0000 N   0  0  0  0  0  4  0  0  0  0  0  0
   -1.4030    1.1851    0.9129 H   0  0  0  0  0  0  0  0  0  0  0  0
   -1.1662    1.5525   -0.6606 H   0  0  0  0  0  0  0  0  0  0  0  0
   -2.0235    0.2239   -0.2519 H   0  0  0  0  0  0  0  0  0  0  0  0
    1.1721    4.1048   -2.5001 C   0  0  0  0  0  0  0  0  0  0  0  0
    1.7091    3.2316   -2.4089 H   0  0  0  0  0  0  0  0  0  0  0  0
    1.8564    4.8558   -2.3349 H   0  0  0  0  0  0  0  0  0  0  0  0
    0.8240    4.1828   -3.5301 H   0  0  0  0  0  0  0  0  0  0  0  0
   -0.1563    4.1687   -1.2655 S   0  0  0  0  0  0  0  0  0  0  0  0
    0.6163    5.0742   -0.0273 C   0  0  0  0  0  0  0  0  0  0  0  0
    0.4427    4.6764    0.8889 H   0  0  0  0  0  0  0  0  0  0  0  0
    1.6220    5.1022   -0.1579 H   0  0  0  0  0  0  0  0  0  0  0  0
    0.2879    6.0330   -0.0068 H   0  0  0  0  0  0  0  0  0  0  0  0
  1  5  1  0
  5  8  1  0
  1  2  1  0
  1  3  1  0
  1  4  1  0
  5  6  1  0
  5  7  1  0
  8  9  1  0
  8 10  1  0
  8 11  1  0
 12 16  1  0
 16 17  1  0
 12 13  1  0
 12 14  1  0
 12 15  1  0
 17 18  1  0
 17 19  1  0
 17 20  1  0
M  CHG  1   8   1
M  END
>  <PDB_ID>  (927) 
pdb3fcp

>  <RESIDUE_NAME>  (927) 
LYS   MET

>  <FRAG_NAME>  (927) 
ETAM   MSM

>  <FRAG_ATOM_NUM>  (927) 
fragi: 11  fragj: 9

>  <atom.prop.CHAIN_ID>  (927) 
A A A A A A A A A A A Z Z Z Z Z Z Z Z Z

>  <atom.prop.IS_HEAVY_ATOM>  (927) 
1 0 0 0 1 0 0 1 0 0 0 1 0 0 0 1 1 0 0 0

>  <DIFUSE_FUNC_ATOM>  (927) 
n/a

>  <FINAL_SINGLE_POINT_ENERGY>  (927) 
0

>  <NONCOV_INTER_ENERGY_QM>  (927) 
0

>  <FF_Energy>  (927) 
-5.34

>  <QM_Energy>  (927) 
-12.61

>  <source>  (927) 
ETAM_MSM

>  <Index>  (927) 
5640

$$$$
ETAM-pdb3fcp-D-LYS-274:MSM-pdb3fcp-D-MET-303
     RDKit          3D

 20 18  0  0  0  0  0  0  0  0999 V2000
    1.2475    0.8782   -0.0000 C   0  0  0  0  0  0  0  0  0  0  0  0
    1.2359    1.4420    0.8159 H   0  0  0  0  0  0  0  0  0  0  0  0
    1.2366    1.4405   -0.8171 H   0  0  0  0  0  0  0  0  0  0  0  0
    2.1529    0.2713    0.0014 H   0  0  0  0  0  0  0  0  0  0  0  0
    0.0000    0.0000    0.0000 C   0  0  0  0  0  0  0  0  0  0  0  0
    0.0137   -0.5820   -0.8160 H   0  0  0  0  0  0  0  0  0  0  0  0
    0.0139   -0.5823    0.8161 H   0  0  0  0  0  0  0  0  0  0  0  0
   -1.2475    0.8146    0.0000 N   0  0  0  0  0  4  0  0  0  0  0  0
   -1.1534    1.5634   -0.6552 H   0  0  0  0  0  0  0  0  0  0  0  0
   -2.0200    0.2360   -0.2595 H   0  0  0  0  0  0  0  0  0  0  0  0
   -1.3998    1.1864    0.9146 H   0  0  0  0  0  0  0  0  0  0  0  0
    1.1776    4.1120   -2.7375 C   0  0  0  0  0  0  0  0  0  0  0  0
    1.7842    3.2885   -2.5805 H   0  0  0  0  0  0  0  0  0  0  0  0
    1.8100    4.9213   -2.6123 H   0  0  0  0  0  0  0  0  0  0  0  0
    0.8546    4.0958   -3.7784 H   0  0  0  0  0  0  0  0  0  0  0  0
   -0.1647    4.1576   -1.5111 S   0  0  0  0  0  0  0  0  0  0  0  0
   -0.8980    5.6798   -1.8733 C   0  0  0  0  0  0  0  0  0  0  0  0
   -0.2644    6.4464   -1.6876 H   0  0  0  0  0  0  0  0  0  0  0  0
   -1.1683    5.7356   -2.8473 H   0  0  0  0  0  0  0  0  0  0  0  0
   -1.7294    5.8286   -1.3156 H   0  0  0  0  0  0  0  0  0  0  0  0
  1  5  1  0
  5  8  1  0
  1  2  1  0
  1  3  1  0
  1  4  1  0
  5  6  1  0
  5  7  1  0
  8  9  1  0
  8 10  1  0
  8 11  1  0
 12 16  1  0
 16 17  1  0
 12 13  1  0
 12 14  1  0
 12 15  1  0
 17 18  1  0
 17 19  1  0
 17 20  1  0
M  CHG  1   8   1
M  END
>  <PDB_ID>  (928) 
pdb3fcp

>  <RESIDUE_NAME>  (928) 
LYS   MET

>  <FRAG_NAME>  (928) 
ETAM   MSM

>  <FRAG_ATOM_NUM>  (928) 
fragi: 11  fragj: 9

>  <atom.prop.CHAIN_ID>  (928) 
A A A A A A A A A A A Z Z Z Z Z Z Z Z Z

>  <atom.prop.IS_HEAVY_ATOM>  (928) 
1 0 0 0 1 0 0 1 0 0 0 1 0 0 0 1 1 0 0 0

>  <DIFUSE_FUNC_ATOM>  (928) 
n/a

>  <FINAL_SINGLE_POINT_ENERGY>  (928) 
0

>  <NONCOV_INTER_ENERGY_QM>  (928) 
0

>  <FF_Energy>  (928) 
-5.48

>  <QM_Energy>  (928) 
-12.52

>  <source>  (928) 
ETAM_MSM

>  <Index>  (928) 
5647

$$$$
ETAM-pdb3fkk-A-LYS-182:MSM-pdb3fkk-A-MET-227
     RDKit          3D

 20 18  0  0  0  0  0  0  0  0999 V2000
    1.2324    0.8746   -0.0000 C   0  0  0  0  0  0  0  0  0  0  0  0
    1.2505    1.4047    0.8441 H   0  0  0  0  0  0  0  0  0  0  0  0
    1.1931    1.4847   -0.7864 H   0  0  0  0  0  0  0  0  0  0  0  0
    2.1459    0.2830   -0.0603 H   0  0  0  0  0  0  0  0  0  0  0  0
    0.0000    0.0000    0.0000 C   0  0  0  0  0  0  0  0  0  0  0  0
    0.0061   -0.5776   -0.8161 H   0  0  0  0  0  0  0  0  0  0  0  0
    0.0065   -0.5777    0.8160 H   0  0  0  0  0  0  0  0  0  0  0  0
   -1.2324    0.8312    0.0000 N   0  0  0  0  0  4  0  0  0  0  0  0
   -1.0410    1.7096   -0.4379 H   0  0  0  0  0  0  0  0  0  0  0  0
   -1.9538    0.3564   -0.5046 H   0  0  0  0  0  0  0  0  0  0  0  0
   -1.5292    0.9851    0.9419 H   0  0  0  0  0  0  0  0  0  0  0  0
   -0.9946   -0.6667    3.7975 C   0  0  0  0  0  0  0  0  0  0  0  0
   -1.7261   -1.0935    3.2174 H   0  0  0  0  0  0  0  0  0  0  0  0
   -1.3682   -0.6730    4.7543 H   0  0  0  0  0  0  0  0  0  0  0  0
   -0.1146   -1.3092    3.7677 H   0  0  0  0  0  0  0  0  0  0  0  0
   -0.6598    1.0297    3.2556 S   0  0  0  0  0  0  0  0  0  0  0  0
    0.4652    1.5516    4.5656 C   0  0  0  0  0  0  0  0  0  0  0  0
    0.9539    0.7541    4.9176 H   0  0  0  0  0  0  0  0  0  0  0  0
    1.1189    2.2098    4.1953 H   0  0  0  0  0  0  0  0  0  0  0  0
   -0.0603    1.9765    5.3013 H   0  0  0  0  0  0  0  0  0  0  0  0
  1  5  1  0
  5  8  1  0
  1  2  1  0
  1  3  1  0
  1  4  1  0
  5  6  1  0
  5  7  1  0
  8  9  1  0
  8 10  1  0
  8 11  1  0
 12 16  1  0
 16 17  1  0
 12 13  1  0
 12 14  1  0
 12 15  1  0
 17 18  1  0
 17 19  1  0
 17 20  1  0
M  CHG  1   8   1
M  END
>  <PDB_ID>  (929) 
pdb3fkk

>  <RESIDUE_NAME>  (929) 
LYS   MET

>  <FRAG_NAME>  (929) 
ETAM   MSM

>  <FRAG_ATOM_NUM>  (929) 
fragi: 11  fragj: 9

>  <atom.prop.CHAIN_ID>  (929) 
A A A A A A A A A A A Z Z Z Z Z Z Z Z Z

>  <atom.prop.IS_HEAVY_ATOM>  (929) 
1 0 0 0 1 0 0 1 0 0 0 1 0 0 0 1 1 0 0 0

>  <DIFUSE_FUNC_ATOM>  (929) 
n/a

>  <FINAL_SINGLE_POINT_ENERGY>  (929) 
0

>  <NONCOV_INTER_ENERGY_QM>  (929) 
0

>  <FF_Energy>  (929) 
-5.69

>  <QM_Energy>  (929) 
-13.87

>  <source>  (929) 
ETAM_MSM

>  <Index>  (929) 
5653

$$$$
ETAM-pdb3fkk-B-LYS-182:MSM-pdb3fkk-B-MET-227
     RDKit          3D

 20 18  0  0  0  0  0  0  0  0999 V2000
    1.2387    0.8694    0.0000 C   0  0  0  0  0  0  0  0  0  0  0  0
    1.1566    1.5429    0.7289 H   0  0  0  0  0  0  0  0  0  0  0  0
    1.3077    1.3274   -0.8823 H   0  0  0  0  0  0  0  0  0  0  0  0
    2.1418    0.2816    0.1643 H   0  0  0  0  0  0  0  0  0  0  0  0
    0.0000    0.0000    0.0000 C   0  0  0  0  0  0  0  0  0  0  0  0
    0.0045   -0.5788   -0.8160 H   0  0  0  0  0  0  0  0  0  0  0  0
    0.0041   -0.5799    0.8167 H   0  0  0  0  0  0  0  0  0  0  0  0
   -1.2387    0.8307    0.0000 N   0  0  0  0  0  4  0  0  0  0  0  0
   -1.7272    0.6952    0.8612 H   0  0  0  0  0  0  0  0  0  0  0  0
   -0.9906    1.7937   -0.0982 H   0  0  0  0  0  0  0  0  0  0  0  0
   -1.8212    0.5545   -0.7632 H   0  0  0  0  0  0  0  0  0  0  0  0
    0.5633    4.9123   -0.5393 C   0  0  0  0  0  0  0  0  0  0  0  0
   -0.0372    5.0818    0.2811 H   0  0  0  0  0  0  0  0  0  0  0  0
    0.6276    5.8275   -1.0098 H   0  0  0  0  0  0  0  0  0  0  0  0
    1.5575    4.6455   -0.1807 H   0  0  0  0  0  0  0  0  0  0  0  0
   -0.1785    3.6817   -1.6315 S   0  0  0  0  0  0  0  0  0  0  0  0
    0.9419    3.7739   -3.0371 C   0  0  0  0  0  0  0  0  0  0  0  0
    1.8823    3.8545   -2.7074 H   0  0  0  0  0  0  0  0  0  0  0  0
    0.8508    2.9456   -3.5890 H   0  0  0  0  0  0  0  0  0  0  0  0
    0.7119    4.5728   -3.5922 H   0  0  0  0  0  0  0  0  0  0  0  0
  1  5  1  0
  5  8  1  0
  1  2  1  0
  1  3  1  0
  1  4  1  0
  5  6  1  0
  5  7  1  0
  8  9  1  0
  8 10  1  0
  8 11  1  0
 12 16  1  0
 16 17  1  0
 12 13  1  0
 12 14  1  0
 12 15  1  0
 17 18  1  0
 17 19  1  0
 17 20  1  0
M  CHG  1   8   1
M  END
>  <PDB_ID>  (930) 
pdb3fkk

>  <RESIDUE_NAME>  (930) 
LYS   MET

>  <FRAG_NAME>  (930) 
ETAM   MSM

>  <FRAG_ATOM_NUM>  (930) 
fragi: 11  fragj: 9

>  <atom.prop.CHAIN_ID>  (930) 
A A A A A A A A A A A Z Z Z Z Z Z Z Z Z

>  <atom.prop.IS_HEAVY_ATOM>  (930) 
1 0 0 0 1 0 0 1 0 0 0 1 0 0 0 1 1 0 0 0

>  <DIFUSE_FUNC_ATOM>  (930) 
n/a

>  <FINAL_SINGLE_POINT_ENERGY>  (930) 
0

>  <NONCOV_INTER_ENERGY_QM>  (930) 
0

>  <FF_Energy>  (930) 
-5.83

>  <QM_Energy>  (930) 
-13.68

>  <source>  (930) 
ETAM_MSM

>  <Index>  (930) 
5655

$$$$
ETAM-pdb3fcp-E-LYS-274:MSM-pdb3fcp-E-MET-303
     RDKit          3D

 20 18  0  0  0  0  0  0  0  0999 V2000
    1.2568    0.8721   -0.0000 C   0  0  0  0  0  0  0  0  0  0  0  0
    1.2766    1.3925    0.8399 H   0  0  0  0  0  0  0  0  0  0  0  0
    1.2266    1.4648   -0.7905 H   0  0  0  0  0  0  0  0  0  0  0  0
    2.1492    0.2487   -0.0546 H   0  0  0  0  0  0  0  0  0  0  0  0
    0.0000    0.0000    0.0000 C   0  0  0  0  0  0  0  0  0  0  0  0
    0.0224   -0.5925   -0.8164 H   0  0  0  0  0  0  0  0  0  0  0  0
    0.0218   -0.5930    0.8163 H   0  0  0  0  0  0  0  0  0  0  0  0
   -1.2568    0.7874    0.0000 N   0  0  0  0  0  4  0  0  0  0  0  0
   -1.3773    1.2244   -0.8921 H   0  0  0  0  0  0  0  0  0  0  0  0
   -2.0312    0.1806    0.1816 H   0  0  0  0  0  0  0  0  0  0  0  0
   -1.2115    1.4895    0.7114 H   0  0  0  0  0  0  0  0  0  0  0  0
    1.1341    4.3892   -2.2627 C   0  0  0  0  0  0  0  0  0  0  0  0
    1.7537    3.5582   -2.2546 H   0  0  0  0  0  0  0  0  0  0  0  0
    1.7781    5.1829   -2.0922 H   0  0  0  0  0  0  0  0  0  0  0  0
    0.7286    4.4957   -3.2688 H   0  0  0  0  0  0  0  0  0  0  0  0
   -0.0993    4.2764   -0.9455 S   0  0  0  0  0  0  0  0  0  0  0  0
   -0.9607    5.7804   -1.1504 C   0  0  0  0  0  0  0  0  0  0  0  0
   -1.9476    5.6145   -1.2785 H   0  0  0  0  0  0  0  0  0  0  0  0
   -0.8454    6.3731   -0.3417 H   0  0  0  0  0  0  0  0  0  0  0  0
   -0.6202    6.2820   -1.9574 H   0  0  0  0  0  0  0  0  0  0  0  0
  1  5  1  0
  5  8  1  0
  1  2  1  0
  1  3  1  0
  1  4  1  0
  5  6  1  0
  5  7  1  0
  8  9  1  0
  8 10  1  0
  8 11  1  0
 12 16  1  0
 16 17  1  0
 12 13  1  0
 12 14  1  0
 12 15  1  0
 17 18  1  0
 17 19  1  0
 17 20  1  0
M  CHG  1   8   1
M  END
>  <PDB_ID>  (931) 
pdb3fcp

>  <RESIDUE_NAME>  (931) 
LYS   MET

>  <FRAG_NAME>  (931) 
ETAM   MSM

>  <FRAG_ATOM_NUM>  (931) 
fragi: 11  fragj: 9

>  <atom.prop.CHAIN_ID>  (931) 
A A A A A A A A A A A Z Z Z Z Z Z Z Z Z

>  <atom.prop.IS_HEAVY_ATOM>  (931) 
1 0 0 0 1 0 0 1 0 0 0 1 0 0 0 1 1 0 0 0

>  <DIFUSE_FUNC_ATOM>  (931) 
n/a

>  <FINAL_SINGLE_POINT_ENERGY>  (931) 
0

>  <NONCOV_INTER_ENERGY_QM>  (931) 
0

>  <FF_Energy>  (931) 
-5.31

>  <QM_Energy>  (931) 
-11.76

>  <source>  (931) 
ETAM_MSM

>  <Index>  (931) 
5666

$$$$
ETAM-pdb3flp-I-LYS-86:MSM-pdb3flp-I-MET-125
     RDKit          3D

 20 18  0  0  0  0  0  0  0  0999 V2000
    1.2449    0.8762    0.0000 C   0  0  0  0  0  0  0  0  0  0  0  0
    1.2296    1.4479    0.8084 H   0  0  0  0  0  0  0  0  0  0  0  0
    1.2472    1.4230   -0.8251 H   0  0  0  0  0  0  0  0  0  0  0  0
    2.1424    0.2581    0.0199 H   0  0  0  0  0  0  0  0  0  0  0  0
    0.0000    0.0000    0.0000 C   0  0  0  0  0  0  0  0  0  0  0  0
    0.0177   -0.5858   -0.8160 H   0  0  0  0  0  0  0  0  0  0  0  0
    0.0174   -0.5860    0.8158 H   0  0  0  0  0  0  0  0  0  0  0  0
   -1.2449    0.8040   -0.0000 N   0  0  0  0  0  4  0  0  0  0  0  0
   -1.0469    1.7283   -0.3292 H   0  0  0  0  0  0  0  0  0  0  0  0
   -1.9208    0.3753   -0.6009 H   0  0  0  0  0  0  0  0  0  0  0  0
   -1.6115    0.8539    0.9298 H   0  0  0  0  0  0  0  0  0  0  0  0
    3.3945    1.8214    5.3348 C   0  0  0  0  0  0  0  0  0  0  0  0
    2.4754    1.3738    5.4754 H   0  0  0  0  0  0  0  0  0  0  0  0
    3.4418    2.5508    6.0633 H   0  0  0  0  0  0  0  0  0  0  0  0
    4.1682    1.0821    5.5419 H   0  0  0  0  0  0  0  0  0  0  0  0
    3.5073    2.5482    3.6956 S   0  0  0  0  0  0  0  0  0  0  0  0
    2.0185    1.8451    2.9736 C   0  0  0  0  0  0  0  0  0  0  0  0
    1.3845    2.5807    2.7354 H   0  0  0  0  0  0  0  0  0  0  0  0
    2.2591    1.3318    2.1500 H   0  0  0  0  0  0  0  0  0  0  0  0
    1.5862    1.2326    3.6351 H   0  0  0  0  0  0  0  0  0  0  0  0
  1  5  1  0
  5  8  1  0
  1  2  1  0
  1  3  1  0
  1  4  1  0
  5  6  1  0
  5  7  1  0
  8  9  1  0
  8 10  1  0
  8 11  1  0
 12 16  1  0
 16 17  1  0
 12 13  1  0
 12 14  1  0
 12 15  1  0
 17 18  1  0
 17 19  1  0
 17 20  1  0
M  CHG  1   8   1
M  END
>  <PDB_ID>  (932) 
pdb3flp

>  <RESIDUE_NAME>  (932) 
LYS   MET

>  <FRAG_NAME>  (932) 
ETAM   MSM

>  <FRAG_ATOM_NUM>  (932) 
fragi: 11  fragj: 9

>  <atom.prop.CHAIN_ID>  (932) 
A A A A A A A A A A A Z Z Z Z Z Z Z Z Z

>  <atom.prop.IS_HEAVY_ATOM>  (932) 
1 0 0 0 1 0 0 1 0 0 0 1 0 0 0 1 1 0 0 0

>  <DIFUSE_FUNC_ATOM>  (932) 
n/a

>  <FINAL_SINGLE_POINT_ENERGY>  (932) 
0

>  <NONCOV_INTER_ENERGY_QM>  (932) 
0

>  <FF_Energy>  (932) 
10.68

>  <QM_Energy>  (932) 
3.99

>  <source>  (932) 
ETAM_MSM

>  <Index>  (932) 
5670

$$$$
ETAM-pdb3flp-K-LYS-86:MSM-pdb3flp-K-MET-125
     RDKit          3D

 20 18  0  0  0  0  0  0  0  0999 V2000
    1.2460    0.8802   -0.0000 C   0  0  0  0  0  0  0  0  0  0  0  0
    1.2750    1.3859    0.8535 H   0  0  0  0  0  0  0  0  0  0  0  0
    1.1945    1.4995   -0.7734 H   0  0  0  0  0  0  0  0  0  0  0  0
    2.1514    0.2793   -0.0859 H   0  0  0  0  0  0  0  0  0  0  0  0
    0.0000    0.0000    0.0000 C   0  0  0  0  0  0  0  0  0  0  0  0
    0.0148   -0.5801   -0.8161 H   0  0  0  0  0  0  0  0  0  0  0  0
    0.0143   -0.5810    0.8163 H   0  0  0  0  0  0  0  0  0  0  0  0
   -1.2460    0.8155   -0.0000 N   0  0  0  0  0  4  0  0  0  0  0  0
   -1.6116    0.8613    0.9293 H   0  0  0  0  0  0  0  0  0  0  0  0
   -1.0381    1.7379   -0.3252 H   0  0  0  0  0  0  0  0  0  0  0  0
   -1.9198    0.3915   -0.6040 H   0  0  0  0  0  0  0  0  0  0  0  0
    3.7578    2.6309    5.1019 C   0  0  0  0  0  0  0  0  0  0  0  0
    2.8311    2.6436    5.5408 H   0  0  0  0  0  0  0  0  0  0  0  0
    4.3211    3.3056    5.6320 H   0  0  0  0  0  0  0  0  0  0  0  0
    4.1888    1.6398    5.2439 H   0  0  0  0  0  0  0  0  0  0  0  0
    3.6494    3.1128    3.3629 S   0  0  0  0  0  0  0  0  0  0  0  0
    1.9982    2.5149    2.9537 C   0  0  0  0  0  0  0  0  0  0  0  0
    2.0253    2.0504    2.0694 H   0  0  0  0  0  0  0  0  0  0  0  0
    1.6941    1.8767    3.6595 H   0  0  0  0  0  0  0  0  0  0  0  0
    1.3691    3.2894    2.9072 H   0  0  0  0  0  0  0  0  0  0  0  0
  1  5  1  0
  5  8  1  0
  1  2  1  0
  1  3  1  0
  1  4  1  0
  5  6  1  0
  5  7  1  0
  8  9  1  0
  8 10  1  0
  8 11  1  0
 12 16  1  0
 16 17  1  0
 12 13  1  0
 12 14  1  0
 12 15  1  0
 17 18  1  0
 17 19  1  0
 17 20  1  0
M  CHG  1   8   1
M  END
>  <PDB_ID>  (933) 
pdb3flp

>  <RESIDUE_NAME>  (933) 
LYS   MET

>  <FRAG_NAME>  (933) 
ETAM   MSM

>  <FRAG_ATOM_NUM>  (933) 
fragi: 11  fragj: 9

>  <atom.prop.CHAIN_ID>  (933) 
A A A A A A A A A A A Z Z Z Z Z Z Z Z Z

>  <atom.prop.IS_HEAVY_ATOM>  (933) 
1 0 0 0 1 0 0 1 0 0 0 1 0 0 0 1 1 0 0 0

>  <DIFUSE_FUNC_ATOM>  (933) 
n/a

>  <FINAL_SINGLE_POINT_ENERGY>  (933) 
0

>  <NONCOV_INTER_ENERGY_QM>  (933) 
0

>  <FF_Energy>  (933) 
15.6

>  <QM_Energy>  (933) 
3.67

>  <source>  (933) 
ETAM_MSM

>  <Index>  (933) 
5671

$$$$
ETAM-pdb3flp-N-LYS-86:MSM-pdb3flp-N-MET-125
     RDKit          3D

 20 18  0  0  0  0  0  0  0  0999 V2000
    1.2406    0.8834   -0.0000 C   0  0  0  0  0  0  0  0  0  0  0  0
    1.3039    1.3391    0.8832 H   0  0  0  0  0  0  0  0  0  0  0  0
    1.1484    1.5565   -0.7279 H   0  0  0  0  0  0  0  0  0  0  0  0
    2.1498    0.3054   -0.1653 H   0  0  0  0  0  0  0  0  0  0  0  0
    0.0000    0.0000    0.0000 C   0  0  0  0  0  0  0  0  0  0  0  0
    0.0115   -0.5760   -0.8157 H   0  0  0  0  0  0  0  0  0  0  0  0
    0.0114   -0.5761    0.8158 H   0  0  0  0  0  0  0  0  0  0  0  0
   -1.2406    0.8265    0.0000 N   0  0  0  0  0  4  0  0  0  0  0  0
   -1.3364    1.2790    0.8855 H   0  0  0  0  0  0  0  0  0  0  0  0
   -1.1791    1.5134   -0.7226 H   0  0  0  0  0  0  0  0  0  0  0  0
   -2.0303    0.2371   -0.1626 H   0  0  0  0  0  0  0  0  0  0  0  0
    3.6543    2.7553    5.0059 C   0  0  0  0  0  0  0  0  0  0  0  0
    2.8160    2.7981    5.6066 H   0  0  0  0  0  0  0  0  0  0  0  0
    4.2872    3.4725    5.3917 H   0  0  0  0  0  0  0  0  0  0  0  0
    4.1209    1.7804    5.1465 H   0  0  0  0  0  0  0  0  0  0  0  0
    3.2387    3.1201    3.2985 S   0  0  0  0  0  0  0  0  0  0  0  0
    1.7261    2.1587    3.1291 C   0  0  0  0  0  0  0  0  0  0  0  0
    1.4712    1.7818    4.0191 H   0  0  0  0  0  0  0  0  0  0  0  0
    0.9936    2.7506    2.7944 H   0  0  0  0  0  0  0  0  0  0  0  0
    1.8776    1.4139    2.4803 H   0  0  0  0  0  0  0  0  0  0  0  0
  1  5  1  0
  5  8  1  0
  1  2  1  0
  1  3  1  0
  1  4  1  0
  5  6  1  0
  5  7  1  0
  8  9  1  0
  8 10  1  0
  8 11  1  0
 12 16  1  0
 16 17  1  0
 12 13  1  0
 12 14  1  0
 12 15  1  0
 17 18  1  0
 17 19  1  0
 17 20  1  0
M  CHG  1   8   1
M  END
>  <PDB_ID>  (934) 
pdb3flp

>  <RESIDUE_NAME>  (934) 
LYS   MET

>  <FRAG_NAME>  (934) 
ETAM   MSM

>  <FRAG_ATOM_NUM>  (934) 
fragi: 11  fragj: 9

>  <atom.prop.CHAIN_ID>  (934) 
A A A A A A A A A A A Z Z Z Z Z Z Z Z Z

>  <atom.prop.IS_HEAVY_ATOM>  (934) 
1 0 0 0 1 0 0 1 0 0 0 1 0 0 0 1 1 0 0 0

>  <DIFUSE_FUNC_ATOM>  (934) 
n/a

>  <FINAL_SINGLE_POINT_ENERGY>  (934) 
0

>  <NONCOV_INTER_ENERGY_QM>  (934) 
0

>  <FF_Energy>  (934) 
7.2

>  <QM_Energy>  (934) 
1.91

>  <source>  (934) 
ETAM_MSM

>  <Index>  (934) 
5673

$$$$
ETAM-pdb3fcp-F-LYS-274:MSM-pdb3fcp-F-MET-303
     RDKit          3D

 20 18  0  0  0  0  0  0  0  0999 V2000
    1.2445    0.8917   -0.0000 C   0  0  0  0  0  0  0  0  0  0  0  0
    1.2468    1.4265    0.8358 H   0  0  0  0  0  0  0  0  0  0  0  0
    1.2076    1.4808   -0.7962 H   0  0  0  0  0  0  0  0  0  0  0  0
    2.1555    0.2947   -0.0413 H   0  0  0  0  0  0  0  0  0  0  0  0
    0.0000    0.0000    0.0000 C   0  0  0  0  0  0  0  0  0  0  0  0
    0.0235   -0.5800   -0.8162 H   0  0  0  0  0  0  0  0  0  0  0  0
    0.0227   -0.5802    0.8159 H   0  0  0  0  0  0  0  0  0  0  0  0
   -1.2445    0.8064    0.0000 N   0  0  0  0  0  4  0  0  0  0  0  0
   -1.2401    1.4290   -0.7837 H   0  0  0  0  0  0  0  0  0  0  0  0
   -2.0370    0.1985   -0.0626 H   0  0  0  0  0  0  0  0  0  0  0  0
   -1.2982    1.3374    0.8461 H   0  0  0  0  0  0  0  0  0  0  0  0
    0.9609    4.2904   -2.3320 C   0  0  0  0  0  0  0  0  0  0  0  0
    1.6285    3.4982   -2.2493 H   0  0  0  0  0  0  0  0  0  0  0  0
    1.5564    5.1281   -2.1750 H   0  0  0  0  0  0  0  0  0  0  0  0
    0.6023    4.3204   -3.3608 H   0  0  0  0  0  0  0  0  0  0  0  0
   -0.3185    4.1748   -1.0294 S   0  0  0  0  0  0  0  0  0  0  0  0
   -1.2951    5.6141   -1.3219 C   0  0  0  0  0  0  0  0  0  0  0  0
   -0.7042    6.4187   -1.4461 H   0  0  0  0  0  0  0  0  0  0  0  0
   -1.8536    5.4953   -2.1502 H   0  0  0  0  0  0  0  0  0  0  0  0
   -1.9082    5.7846   -0.5435 H   0  0  0  0  0  0  0  0  0  0  0  0
  1  5  1  0
  5  8  1  0
  1  2  1  0
  1  3  1  0
  1  4  1  0
  5  6  1  0
  5  7  1  0
  8  9  1  0
  8 10  1  0
  8 11  1  0
 12 16  1  0
 16 17  1  0
 12 13  1  0
 12 14  1  0
 12 15  1  0
 17 18  1  0
 17 19  1  0
 17 20  1  0
M  CHG  1   8   1
M  END
>  <PDB_ID>  (935) 
pdb3fcp

>  <RESIDUE_NAME>  (935) 
LYS   MET

>  <FRAG_NAME>  (935) 
ETAM   MSM

>  <FRAG_ATOM_NUM>  (935) 
fragi: 11  fragj: 9

>  <atom.prop.CHAIN_ID>  (935) 
A A A A A A A A A A A Z Z Z Z Z Z Z Z Z

>  <atom.prop.IS_HEAVY_ATOM>  (935) 
1 0 0 0 1 0 0 1 0 0 0 1 0 0 0 1 1 0 0 0

>  <DIFUSE_FUNC_ATOM>  (935) 
n/a

>  <FINAL_SINGLE_POINT_ENERGY>  (935) 
0

>  <NONCOV_INTER_ENERGY_QM>  (935) 
0

>  <FF_Energy>  (935) 
-5.67

>  <QM_Energy>  (935) 
-13.47

>  <source>  (935) 
ETAM_MSM

>  <Index>  (935) 
5684

$$$$
ETAM-pdb4bht-B-LYS-92:MSM-pdb4bht-B-MET-384
     RDKit          3D

 20 18  0  0  0  0  0  0  0  0999 V2000
    1.2622    0.7839   -0.0000 C   0  0  0  0  0  0  0  0  0  0  0  0
    1.1749    1.5144   -0.6324 H   0  0  0  0  0  0  0  0  0  0  0  0
    1.9925    0.1977   -0.2525 H   0  0  0  0  0  0  0  0  0  0  0  0
    1.4395    1.1824    0.9990 H   0  0  0  0  0  0  0  0  0  0  0  0
    0.0000    0.0000    0.0000 C   0  0  0  0  0  0  0  0  0  0  0  0
   -0.0146   -0.5594   -0.7927 H   0  0  0  0  0  0  0  0  0  0  0  0
   -0.0149   -0.5596    0.7922 H   0  0  0  0  0  0  0  0  0  0  0  0
   -1.2622    0.8153    0.0000 N   0  0  0  0  0  4  0  0  0  0  0  0
   -1.2901    1.3316   -0.7247 H   0  0  0  0  0  0  0  0  0  0  0  0
   -1.9715    0.2771   -0.0004 H   0  0  0  0  0  0  0  0  0  0  0  0
   -1.2905    1.3318    0.7245 H   0  0  0  0  0  0  0  0  0  0  0  0
    0.8422   -3.1569   -2.8034 C   0  0  0  0  0  0  0  0  0  0  0  0
    0.6976   -2.7449   -3.6689 H   0  0  0  0  0  0  0  0  0  0  0  0
    0.0060   -3.2128   -2.3156 H   0  0  0  0  0  0  0  0  0  0  0  0
    1.2402   -4.1613   -2.9475 H   0  0  0  0  0  0  0  0  0  0  0  0
    1.9741   -2.1073   -1.8620 S   0  0  0  0  0  0  0  0  0  0  0  0
    3.1377   -1.6376   -3.1342 C   0  0  0  0  0  0  0  0  0  0  0  0
    2.6629   -1.1672   -3.8378 H   0  0  0  0  0  0  0  0  0  0  0  0
    3.8126   -1.0593   -2.7465 H   0  0  0  0  0  0  0  0  0  0  0  0
    3.5535   -2.4373   -3.4927 H   0  0  0  0  0  0  0  0  0  0  0  0
  1  5  1  0
  5  8  1  0
  1  2  1  0
  1  3  1  0
  1  4  1  0
  5  6  1  0
  5  7  1  0
  8  9  1  0
  8 10  1  0
  8 11  1  0
 12 16  1  0
 16 17  1  0
 12 13  1  0
 12 14  1  0
 12 15  1  0
 17 18  1  0
 17 19  1  0
 17 20  1  0
M  CHG  1   8   1
M  END
>  <PDB_ID>  (936) 
pdb4bht

>  <RESIDUE_NAME>  (936) 
LYS   MET

>  <FRAG_NAME>  (936) 
ETAM   MSM

>  <FRAG_ATOM_NUM>  (936) 
fragi: 11  fragj: 9

>  <atom.prop.CHAIN_ID>  (936) 
A A A A A A A A A A A Z Z Z Z Z Z Z Z Z

>  <atom.prop.IS_HEAVY_ATOM>  (936) 
1 0 0 0 1 0 0 1 0 0 0 1 0 0 0 1 1 0 0 0

>  <DIFUSE_FUNC_ATOM>  (936) 
n/a

>  <FINAL_SINGLE_POINT_ENERGY>  (936) 
0

>  <NONCOV_INTER_ENERGY_QM>  (936) 
0

>  <FF_Energy>  (936) 
-2.46

>  <QM_Energy>  (936) 
-7.94

>  <source>  (936) 
ETAM_MSM

>  <Index>  (936) 
5689

$$$$
ETAM-pdb4bif-A-LYS-93:MSM-pdb4bif-A-MET-121
     RDKit          3D

 20 18  0  0  0  0  0  0  0  0999 V2000
    1.2523    0.8610   -0.0000 C   0  0  0  0  0  0  0  0  0  0  0  0
    1.3966    1.2120    0.9171 H   0  0  0  0  0  0  0  0  0  0  0  0
    1.1272    1.6043   -0.6454 H   0  0  0  0  0  0  0  0  0  0  0  0
    2.1248    0.2789   -0.2966 H   0  0  0  0  0  0  0  0  0  0  0  0
    0.0000    0.0000    0.0000 C   0  0  0  0  0  0  0  0  0  0  0  0
    0.0099   -0.5893   -0.8165 H   0  0  0  0  0  0  0  0  0  0  0  0
    0.0098   -0.5894    0.8166 H   0  0  0  0  0  0  0  0  0  0  0  0
   -1.2523    0.8087    0.0000 N   0  0  0  0  0  4  0  0  0  0  0  0
   -1.0206    1.7771    0.0786 H   0  0  0  0  0  0  0  0  0  0  0  0
   -1.7480    0.6509   -0.8534 H   0  0  0  0  0  0  0  0  0  0  0  0
   -1.8217    0.5356    0.7749 H   0  0  0  0  0  0  0  0  0  0  0  0
    0.5353   -4.0383    2.5009 C   0  0  0  0  0  0  0  0  0  0  0  0
    0.0966   -4.0841    3.4342 H   0  0  0  0  0  0  0  0  0  0  0  0
    1.2160   -4.8137    2.4948 H   0  0  0  0  0  0  0  0  0  0  0  0
   -0.2307   -4.2527    1.7557 H   0  0  0  0  0  0  0  0  0  0  0  0
    1.3711   -2.4537    2.2662 S   0  0  0  0  0  0  0  0  0  0  0  0
    2.5591   -2.4706    3.6085 C   0  0  0  0  0  0  0  0  0  0  0  0
    3.4066   -2.9049    3.3007 H   0  0  0  0  0  0  0  0  0  0  0  0
    2.7525   -1.5318    3.8963 H   0  0  0  0  0  0  0  0  0  0  0  0
    2.1841   -2.9841    4.3817 H   0  0  0  0  0  0  0  0  0  0  0  0
  1  5  1  0
  5  8  1  0
  1  2  1  0
  1  3  1  0
  1  4  1  0
  5  6  1  0
  5  7  1  0
  8  9  1  0
  8 10  1  0
  8 11  1  0
 12 16  1  0
 16 17  1  0
 12 13  1  0
 12 14  1  0
 12 15  1  0
 17 18  1  0
 17 19  1  0
 17 20  1  0
M  CHG  1   8   1
M  END
>  <PDB_ID>  (937) 
pdb4bif

>  <RESIDUE_NAME>  (937) 
LYS   MET

>  <FRAG_NAME>  (937) 
ETAM   MSM

>  <FRAG_ATOM_NUM>  (937) 
fragi: 11  fragj: 9

>  <atom.prop.CHAIN_ID>  (937) 
A A A A A A A A A A A Z Z Z Z Z Z Z Z Z

>  <atom.prop.IS_HEAVY_ATOM>  (937) 
1 0 0 0 1 0 0 1 0 0 0 1 0 0 0 1 1 0 0 0

>  <DIFUSE_FUNC_ATOM>  (937) 
n/a

>  <FINAL_SINGLE_POINT_ENERGY>  (937) 
0

>  <NONCOV_INTER_ENERGY_QM>  (937) 
0

>  <FF_Energy>  (937) 
-3.41

>  <QM_Energy>  (937) 
-8.55

>  <source>  (937) 
ETAM_MSM

>  <Index>  (937) 
5700

$$$$
ETAM-pdb4bif-C-LYS-93:MSM-pdb4bif-C-MET-121
     RDKit          3D

 20 18  0  0  0  0  0  0  0  0999 V2000
    1.2375    0.8626    0.0000 C   0  0  0  0  0  0  0  0  0  0  0  0
    1.1089    1.6116    0.6438 H   0  0  0  0  0  0  0  0  0  0  0  0
    1.3809    1.2211   -0.9183 H   0  0  0  0  0  0  0  0  0  0  0  0
    2.1208    0.2970    0.2964 H   0  0  0  0  0  0  0  0  0  0  0  0
    0.0000    0.0000    0.0000 C   0  0  0  0  0  0  0  0  0  0  0  0
    0.0077   -0.5864   -0.8160 H   0  0  0  0  0  0  0  0  0  0  0  0
    0.0075   -0.5869    0.8161 H   0  0  0  0  0  0  0  0  0  0  0  0
   -1.2375    0.8154   -0.0000 N   0  0  0  0  0  4  0  0  0  0  0  0
   -1.9163    0.3936    0.6027 H   0  0  0  0  0  0  0  0  0  0  0  0
   -1.0305    1.7387    0.3268 H   0  0  0  0  0  0  0  0  0  0  0  0
   -1.6051    0.8666   -0.9295 H   0  0  0  0  0  0  0  0  0  0  0  0
   -0.6856   -0.4870    4.8073 C   0  0  0  0  0  0  0  0  0  0  0  0
   -1.3081    0.0178    5.4747 H   0  0  0  0  0  0  0  0  0  0  0  0
   -0.0791   -1.0558    5.4372 H   0  0  0  0  0  0  0  0  0  0  0  0
   -1.3086   -1.1793    4.2409 H   0  0  0  0  0  0  0  0  0  0  0  0
    0.3119    0.6875    3.8515 S   0  0  0  0  0  0  0  0  0  0  0  0
    0.5048    1.9853    5.0935 C   0  0  0  0  0  0  0  0  0  0  0  0
    0.7852    2.8307    4.6433 H   0  0  0  0  0  0  0  0  0  0  0  0
   -0.3661    2.1244    5.5607 H   0  0  0  0  0  0  0  0  0  0  0  0
    1.2004    1.7076    5.7534 H   0  0  0  0  0  0  0  0  0  0  0  0
  1  5  1  0
  5  8  1  0
  1  2  1  0
  1  3  1  0
  1  4  1  0
  5  6  1  0
  5  7  1  0
  8  9  1  0
  8 10  1  0
  8 11  1  0
 12 16  1  0
 16 17  1  0
 12 13  1  0
 12 14  1  0
 12 15  1  0
 17 18  1  0
 17 19  1  0
 17 20  1  0
M  CHG  1   8   1
M  END
>  <PDB_ID>  (938) 
pdb4bif

>  <RESIDUE_NAME>  (938) 
LYS   MET

>  <FRAG_NAME>  (938) 
ETAM   MSM

>  <FRAG_ATOM_NUM>  (938) 
fragi: 11  fragj: 9

>  <atom.prop.CHAIN_ID>  (938) 
A A A A A A A A A A A Z Z Z Z Z Z Z Z Z

>  <atom.prop.IS_HEAVY_ATOM>  (938) 
1 0 0 0 1 0 0 1 0 0 0 1 0 0 0 1 1 0 0 0

>  <DIFUSE_FUNC_ATOM>  (938) 
n/a

>  <FINAL_SINGLE_POINT_ENERGY>  (938) 
0

>  <NONCOV_INTER_ENERGY_QM>  (938) 
0

>  <FF_Energy>  (938) 
-4.63

>  <QM_Energy>  (938) 
-9.87

>  <source>  (938) 
ETAM_MSM

>  <Index>  (938) 
5701

$$$$
ETAM-pdb3frk-B-LYS-242:MSM-pdb3frk-B-MET-11
     RDKit          3D

 20 18  0  0  0  0  0  0  0  0999 V2000
    1.2489    0.8780   -0.0000 C   0  0  0  0  0  0  0  0  0  0  0  0
    1.3495    1.2768    0.9161 H   0  0  0  0  0  0  0  0  0  0  0  0
    1.1091    1.6194   -0.6631 H   0  0  0  0  0  0  0  0  0  0  0  0
    2.1612    0.3391   -0.2554 H   0  0  0  0  0  0  0  0  0  0  0  0
    0.0000    0.0000    0.0000 C   0  0  0  0  0  0  0  0  0  0  0  0
    0.0006   -0.5703   -0.8161 H   0  0  0  0  0  0  0  0  0  0  0  0
    0.0010   -0.5710    0.8159 H   0  0  0  0  0  0  0  0  0  0  0  0
   -1.2489    0.8483   -0.0000 N   0  0  0  0  0  4  0  0  0  0  0  0
   -0.9953    1.7933   -0.1883 H   0  0  0  0  0  0  0  0  0  0  0  0
   -1.8651    0.5117   -0.7066 H   0  0  0  0  0  0  0  0  0  0  0  0
   -1.6827    0.7809    0.8942 H   0  0  0  0  0  0  0  0  0  0  0  0
   -1.9243   -1.6322   -3.6539 C   0  0  0  0  0  0  0  0  0  0  0  0
   -1.9465   -2.1197   -2.8051 H   0  0  0  0  0  0  0  0  0  0  0  0
   -1.0708   -1.7249   -4.1249 H   0  0  0  0  0  0  0  0  0  0  0  0
   -2.7485   -1.9475   -4.2937 H   0  0  0  0  0  0  0  0  0  0  0  0
   -2.3072    0.1161   -3.3854 S   0  0  0  0  0  0  0  0  0  0  0  0
   -3.8469   -0.0330   -2.2566 C   0  0  0  0  0  0  0  0  0  0  0  0
   -4.1192    0.8860   -2.0421 H   0  0  0  0  0  0  0  0  0  0  0  0
   -4.5252   -0.5135   -2.7798 H   0  0  0  0  0  0  0  0  0  0  0  0
   -3.5575   -0.5355   -1.4643 H   0  0  0  0  0  0  0  0  0  0  0  0
  1  5  1  0
  5  8  1  0
  1  2  1  0
  1  3  1  0
  1  4  1  0
  5  6  1  0
  5  7  1  0
  8  9  1  0
  8 10  1  0
  8 11  1  0
 12 16  1  0
 16 17  1  0
 12 13  1  0
 12 14  1  0
 12 15  1  0
 17 18  1  0
 17 19  1  0
 17 20  1  0
M  CHG  1   8   1
M  END
>  <PDB_ID>  (939) 
pdb3frk

>  <RESIDUE_NAME>  (939) 
LYS   MET

>  <FRAG_NAME>  (939) 
ETAM   MSM

>  <FRAG_ATOM_NUM>  (939) 
fragi: 11  fragj: 9

>  <atom.prop.CHAIN_ID>  (939) 
A A A A A A A A A A A Z Z Z Z Z Z Z Z Z

>  <atom.prop.IS_HEAVY_ATOM>  (939) 
1 0 0 0 1 0 0 1 0 0 0 1 0 0 0 1 1 0 0 0

>  <DIFUSE_FUNC_ATOM>  (939) 
n/a

>  <FINAL_SINGLE_POINT_ENERGY>  (939) 
0

>  <NONCOV_INTER_ENERGY_QM>  (939) 
0

>  <FF_Energy>  (939) 
-3.75

>  <QM_Energy>  (939) 
-10.9

>  <source>  (939) 
ETAM_MSM

>  <Index>  (939) 
5707

$$$$
ETAM-pdb3fcp-H-LYS-274:MSM-pdb3fcp-H-MET-303
     RDKit          3D

 20 18  0  0  0  0  0  0  0  0999 V2000
    1.2460    0.8850   -0.0000 C   0  0  0  0  0  0  0  0  0  0  0  0
    1.2580    1.4102    0.8396 H   0  0  0  0  0  0  0  0  0  0  0  0
    1.2086    1.4791   -0.7915 H   0  0  0  0  0  0  0  0  0  0  0  0
    2.1485    0.2760   -0.0520 H   0  0  0  0  0  0  0  0  0  0  0  0
    0.0000    0.0000    0.0000 C   0  0  0  0  0  0  0  0  0  0  0  0
    0.0222   -0.5835   -0.8158 H   0  0  0  0  0  0  0  0  0  0  0  0
    0.0216   -0.5837    0.8166 H   0  0  0  0  0  0  0  0  0  0  0  0
   -1.2460    0.8026    0.0000 N   0  0  0  0  0  4  0  0  0  0  0  0
   -1.8054    0.5511    0.7907 H   0  0  0  0  0  0  0  0  0  0  0  0
   -1.0170    1.7755    0.0504 H   0  0  0  0  0  0  0  0  0  0  0  0
   -1.7584    0.6250   -0.8411 H   0  0  0  0  0  0  0  0  0  0  0  0
    1.0618    4.0852   -2.5467 C   0  0  0  0  0  0  0  0  0  0  0  0
    1.5213    3.1556   -2.5096 H   0  0  0  0  0  0  0  0  0  0  0  0
    1.8422    4.7530   -2.4046 H   0  0  0  0  0  0  0  0  0  0  0  0
    0.6757    4.2283   -3.5559 H   0  0  0  0  0  0  0  0  0  0  0  0
   -0.1582    4.2423   -1.2027 S   0  0  0  0  0  0  0  0  0  0  0  0
   -1.3132    3.0417   -1.5557 C   0  0  0  0  0  0  0  0  0  0  0  0
   -1.8130    3.2375   -2.4190 H   0  0  0  0  0  0  0  0  0  0  0  0
   -0.8875    2.1248   -1.6616 H   0  0  0  0  0  0  0  0  0  0  0  0
   -2.0119    2.9595   -0.8214 H   0  0  0  0  0  0  0  0  0  0  0  0
  1  5  1  0
  5  8  1  0
  1  2  1  0
  1  3  1  0
  1  4  1  0
  5  6  1  0
  5  7  1  0
  8  9  1  0
  8 10  1  0
  8 11  1  0
 12 16  1  0
 16 17  1  0
 12 13  1  0
 12 14  1  0
 12 15  1  0
 17 18  1  0
 17 19  1  0
 17 20  1  0
M  CHG  1   8   1
M  END
>  <PDB_ID>  (940) 
pdb3fcp

>  <RESIDUE_NAME>  (940) 
LYS   MET

>  <FRAG_NAME>  (940) 
ETAM   MSM

>  <FRAG_ATOM_NUM>  (940) 
fragi: 11  fragj: 9

>  <atom.prop.CHAIN_ID>  (940) 
A A A A A A A A A A A Z Z Z Z Z Z Z Z Z

>  <atom.prop.IS_HEAVY_ATOM>  (940) 
1 0 0 0 1 0 0 1 0 0 0 1 0 0 0 1 1 0 0 0

>  <DIFUSE_FUNC_ATOM>  (940) 
n/a

>  <FINAL_SINGLE_POINT_ENERGY>  (940) 
0

>  <NONCOV_INTER_ENERGY_QM>  (940) 
0

>  <FF_Energy>  (940) 
13.28

>  <QM_Energy>  (940) 
3.98

>  <source>  (940) 
ETAM_MSM

>  <Index>  (940) 
5726

$$$$
ETAM-pdb3fwy-B-LYS-248:MSM-pdb3fwy-B-MET-253
     RDKit          3D

 20 18  0  0  0  0  0  0  0  0999 V2000
    1.2482    0.8705   -0.0000 C   0  0  0  0  0  0  0  0  0  0  0  0
    1.1202    1.6170    0.6522 H   0  0  0  0  0  0  0  0  0  0  0  0
    1.3797    1.2446   -0.9168 H   0  0  0  0  0  0  0  0  0  0  0  0
    2.1496    0.3249    0.2792 H   0  0  0  0  0  0  0  0  0  0  0  0
    0.0000    0.0000    0.0000 C   0  0  0  0  0  0  0  0  0  0  0  0
    0.0124   -0.5856   -0.8160 H   0  0  0  0  0  0  0  0  0  0  0  0
    0.0122   -0.5859    0.8160 H   0  0  0  0  0  0  0  0  0  0  0  0
   -1.2482    0.8114   -0.0000 N   0  0  0  0  0  4  0  0  0  0  0  0
   -1.5993    0.8793   -0.9336 H   0  0  0  0  0  0  0  0  0  0  0  0
   -1.9301    0.3712    0.5835 H   0  0  0  0  0  0  0  0  0  0  0  0
   -1.0487    1.7264    0.3502 H   0  0  0  0  0  0  0  0  0  0  0  0
    5.4365    4.2020    0.1488 C   0  0  0  0  0  0  0  0  0  0  0  0
    5.4612    3.4544   -0.5584 H   0  0  0  0  0  0  0  0  0  0  0  0
    6.4088    4.2897    0.4771 H   0  0  0  0  0  0  0  0  0  0  0  0
    5.1513    5.1325   -0.3420 H   0  0  0  0  0  0  0  0  0  0  0  0
    4.3452    3.7456    1.5151 S   0  0  0  0  0  0  0  0  0  0  0  0
    2.7970    3.3977    0.7006 C   0  0  0  0  0  0  0  0  0  0  0  0
    2.0536    3.8884    1.1610 H   0  0  0  0  0  0  0  0  0  0  0  0
    2.8429    3.6929   -0.2565 H   0  0  0  0  0  0  0  0  0  0  0  0
    2.6108    2.4130    0.7320 H   0  0  0  0  0  0  0  0  0  0  0  0
  1  5  1  0
  5  8  1  0
  1  2  1  0
  1  3  1  0
  1  4  1  0
  5  6  1  0
  5  7  1  0
  8  9  1  0
  8 10  1  0
  8 11  1  0
 12 16  1  0
 16 17  1  0
 12 13  1  0
 12 14  1  0
 12 15  1  0
 17 18  1  0
 17 19  1  0
 17 20  1  0
M  CHG  1   8   1
M  END
>  <PDB_ID>  (941) 
pdb3fwy

>  <RESIDUE_NAME>  (941) 
LYS   MET

>  <FRAG_NAME>  (941) 
ETAM   MSM

>  <FRAG_ATOM_NUM>  (941) 
fragi: 11  fragj: 9

>  <atom.prop.CHAIN_ID>  (941) 
A A A A A A A A A A A Z Z Z Z Z Z Z Z Z

>  <atom.prop.IS_HEAVY_ATOM>  (941) 
1 0 0 0 1 0 0 1 0 0 0 1 0 0 0 1 1 0 0 0

>  <DIFUSE_FUNC_ATOM>  (941) 
n/a

>  <FINAL_SINGLE_POINT_ENERGY>  (941) 
0

>  <NONCOV_INTER_ENERGY_QM>  (941) 
0

>  <FF_Energy>  (941) 
15.63

>  <QM_Energy>  (941) 
5.28

>  <source>  (941) 
ETAM_MSM

>  <Index>  (941) 
5736

$$$$
ETAM-pdb4bv1-C-LYS-104:MSM-pdb4bv1-D-MET-1
     RDKit          3D

 20 18  0  0  0  0  0  0  0  0999 V2000
    1.2421    0.8681    0.0000 C   0  0  0  0  0  0  0  0  0  0  0  0
    1.1065    1.6185    0.6397 H   0  0  0  0  0  0  0  0  0  0  0  0
    1.3834    1.2205   -0.9199 H   0  0  0  0  0  0  0  0  0  0  0  0
    2.1228    0.3012    0.3017 H   0  0  0  0  0  0  0  0  0  0  0  0
    0.0000    0.0000    0.0000 C   0  0  0  0  0  0  0  0  0  0  0  0
    0.0053   -0.5805   -0.8160 H   0  0  0  0  0  0  0  0  0  0  0  0
    0.0040   -0.5803    0.8163 H   0  0  0  0  0  0  0  0  0  0  0  0
   -1.2421    0.8287   -0.0000 N   0  0  0  0  0  4  0  0  0  0  0  0
   -1.2506    1.4085   -0.8135 H   0  0  0  0  0  0  0  0  0  0  0  0
   -2.0389    0.2270   -0.0063 H   0  0  0  0  0  0  0  0  0  0  0  0
   -1.2570    1.3986    0.8202 H   0  0  0  0  0  0  0  0  0  0  0  0
   -2.6043    4.9500    2.3028 C   0  0  0  0  0  0  0  0  0  0  0  0
   -2.5002    5.9725    2.3197 H   0  0  0  0  0  0  0  0  0  0  0  0
   -2.8684    4.6907    3.2615 H   0  0  0  0  0  0  0  0  0  0  0  0
   -3.4312    4.6997    1.6381 H   0  0  0  0  0  0  0  0  0  0  0  0
   -1.0555    4.1584    1.8326 S   0  0  0  0  0  0  0  0  0  0  0  0
    0.0907    5.0167    2.9123 C   0  0  0  0  0  0  0  0  0  0  0  0
    0.1332    4.5476    3.7955 H   0  0  0  0  0  0  0  0  0  0  0  0
    1.0002    5.0248    2.4960 H   0  0  0  0  0  0  0  0  0  0  0  0
   -0.2201    5.9582    3.0505 H   0  0  0  0  0  0  0  0  0  0  0  0
  1  5  1  0
  5  8  1  0
  1  2  1  0
  1  3  1  0
  1  4  1  0
  5  6  1  0
  5  7  1  0
  8  9  1  0
  8 10  1  0
  8 11  1  0
 12 16  1  0
 16 17  1  0
 12 13  1  0
 12 14  1  0
 12 15  1  0
 17 18  1  0
 17 19  1  0
 17 20  1  0
M  CHG  1   8   1
M  END
>  <PDB_ID>  (942) 
pdb4bv1

>  <RESIDUE_NAME>  (942) 
LYS   MET

>  <FRAG_NAME>  (942) 
ETAM   MSM

>  <FRAG_ATOM_NUM>  (942) 
fragi: 11  fragj: 9

>  <atom.prop.CHAIN_ID>  (942) 
A A A A A A A A A A A Z Z Z Z Z Z Z Z Z

>  <atom.prop.IS_HEAVY_ATOM>  (942) 
1 0 0 0 1 0 0 1 0 0 0 1 0 0 0 1 1 0 0 0

>  <DIFUSE_FUNC_ATOM>  (942) 
n/a

>  <FINAL_SINGLE_POINT_ENERGY>  (942) 
0

>  <NONCOV_INTER_ENERGY_QM>  (942) 
0

>  <FF_Energy>  (942) 
-5.18

>  <QM_Energy>  (942) 
-12.29

>  <source>  (942) 
ETAM_MSM

>  <Index>  (942) 
5746

$$$$
ETAM-pdb4c0f-B-LYS-435:MSM-pdb4c0f-D-MET-450
     RDKit          3D

 20 18  0  0  0  0  0  0  0  0999 V2000
    1.2451    0.8737    0.0000 C   0  0  0  0  0  0  0  0  0  0  0  0
    1.1643    1.5127    0.7254 H   0  0  0  0  0  0  0  0  0  0  0  0
    1.2878    1.3382   -0.8502 H   0  0  0  0  0  0  0  0  0  0  0  0
    2.1566    0.2918    0.1363 H   0  0  0  0  0  0  0  0  0  0  0  0
    0.0000    0.0000    0.0000 C   0  0  0  0  0  0  0  0  0  0  0  0
   -0.0008   -0.5545   -0.7960 H   0  0  0  0  0  0  0  0  0  0  0  0
   -0.0012   -0.5555    0.7951 H   0  0  0  0  0  0  0  0  0  0  0  0
   -1.2451    0.8154   -0.0000 N   0  0  0  0  0  4  0  0  0  0  0  0
   -1.2698    1.3325   -0.7241 H   0  0  0  0  0  0  0  0  0  0  0  0
   -1.9572    0.2824   -0.0004 H   0  0  0  0  0  0  0  0  0  0  0  0
   -1.2694    1.3313    0.7250 H   0  0  0  0  0  0  0  0  0  0  0  0
   -2.7716   -4.2877    1.4651 C   0  0  0  0  0  0  0  0  0  0  0  0
   -2.3704   -4.9376    2.0632 H   0  0  0  0  0  0  0  0  0  0  0  0
   -2.7221   -4.6062    0.5505 H   0  0  0  0  0  0  0  0  0  0  0  0
   -3.8188   -4.1570    1.7375 H   0  0  0  0  0  0  0  0  0  0  0  0
   -1.8086   -2.7656    1.5751 S   0  0  0  0  0  0  0  0  0  0  0  0
   -1.9867   -2.3469    3.3069 C   0  0  0  0  0  0  0  0  0  0  0  0
   -1.6303   -3.0621    3.8386 H   0  0  0  0  0  0  0  0  0  0  0  0
   -1.5038   -1.5362    3.4834 H   0  0  0  0  0  0  0  0  0  0  0  0
   -2.9180   -2.2241    3.5040 H   0  0  0  0  0  0  0  0  0  0  0  0
  1  5  1  0
  5  8  1  0
  1  2  1  0
  1  3  1  0
  1  4  1  0
  5  6  1  0
  5  7  1  0
  8  9  1  0
  8 10  1  0
  8 11  1  0
 12 16  1  0
 16 17  1  0
 12 13  1  0
 12 14  1  0
 12 15  1  0
 17 18  1  0
 17 19  1  0
 17 20  1  0
M  CHG  1   8   1
M  END
>  <PDB_ID>  (943) 
pdb4c0f

>  <RESIDUE_NAME>  (943) 
LYS   MET

>  <FRAG_NAME>  (943) 
ETAM   MSM

>  <FRAG_ATOM_NUM>  (943) 
fragi: 11  fragj: 9

>  <atom.prop.CHAIN_ID>  (943) 
A A A A A A A A A A A Z Z Z Z Z Z Z Z Z

>  <atom.prop.IS_HEAVY_ATOM>  (943) 
1 0 0 0 1 0 0 1 0 0 0 1 0 0 0 1 1 0 0 0

>  <DIFUSE_FUNC_ATOM>  (943) 
n/a

>  <FINAL_SINGLE_POINT_ENERGY>  (943) 
0

>  <NONCOV_INTER_ENERGY_QM>  (943) 
0

>  <FF_Energy>  (943) 
-4.43

>  <QM_Energy>  (943) 
-10.16

>  <source>  (943) 
ETAM_MSM

>  <Index>  (943) 
5759

$$$$
ETAM-pdb4c2x-A-LYS-220:MSM-pdb4c2x-A-MET-157
     RDKit          3D

 20 18  0  0  0  0  0  0  0  0999 V2000
    1.2687    0.8734    0.0000 C   0  0  0  0  0  0  0  0  0  0  0  0
    1.4687    1.1296    0.9457 H   0  0  0  0  0  0  0  0  0  0  0  0
    1.0788    1.6950   -0.5363 H   0  0  0  0  0  0  0  0  0  0  0  0
    2.1399    0.3709   -0.4203 H   0  0  0  0  0  0  0  0  0  0  0  0
    0.0000    0.0000    0.0000 C   0  0  0  0  0  0  0  0  0  0  0  0
    0.0171   -0.5869   -0.8162 H   0  0  0  0  0  0  0  0  0  0  0  0
    0.0163   -0.5880    0.8165 H   0  0  0  0  0  0  0  0  0  0  0  0
   -1.2687    0.8023   -0.0000 N   0  0  0  0  0  4  0  0  0  0  0  0
   -1.6536    0.8018    0.9200 H   0  0  0  0  0  0  0  0  0  0  0  0
   -1.0624    1.7368   -0.2812 H   0  0  0  0  0  0  0  0  0  0  0  0
   -1.9149    0.3902   -0.6389 H   0  0  0  0  0  0  0  0  0  0  0  0
    0.5145    4.8682    4.0685 C   0  0  0  0  0  0  0  0  0  0  0  0
    1.2420    5.4442    3.6642 H   0  0  0  0  0  0  0  0  0  0  0  0
    0.9650    4.1633    4.6383 H   0  0  0  0  0  0  0  0  0  0  0  0
   -0.1220    5.4876    4.7005 H   0  0  0  0  0  0  0  0  0  0  0  0
   -0.4931    4.1320    2.8145 S   0  0  0  0  0  0  0  0  0  0  0  0
    0.7410    3.3545    1.7887 C   0  0  0  0  0  0  0  0  0  0  0  0
    0.6562    3.6850    0.8458 H   0  0  0  0  0  0  0  0  0  0  0  0
    1.6562    3.5745    2.1332 H   0  0  0  0  0  0  0  0  0  0  0  0
    0.6158    2.3603    1.8012 H   0  0  0  0  0  0  0  0  0  0  0  0
  1  5  1  0
  5  8  1  0
  1  2  1  0
  1  3  1  0
  1  4  1  0
  5  6  1  0
  5  7  1  0
  8  9  1  0
  8 10  1  0
  8 11  1  0
 12 16  1  0
 16 17  1  0
 12 13  1  0
 12 14  1  0
 12 15  1  0
 17 18  1  0
 17 19  1  0
 17 20  1  0
M  CHG  1   8   1
M  END
>  <PDB_ID>  (944) 
pdb4c2x

>  <RESIDUE_NAME>  (944) 
LYS   MET

>  <FRAG_NAME>  (944) 
ETAM   MSM

>  <FRAG_ATOM_NUM>  (944) 
fragi: 11  fragj: 9

>  <atom.prop.CHAIN_ID>  (944) 
A A A A A A A A A A A Z Z Z Z Z Z Z Z Z

>  <atom.prop.IS_HEAVY_ATOM>  (944) 
1 0 0 0 1 0 0 1 0 0 0 1 0 0 0 1 1 0 0 0

>  <DIFUSE_FUNC_ATOM>  (944) 
n/a

>  <FINAL_SINGLE_POINT_ENERGY>  (944) 
0

>  <NONCOV_INTER_ENERGY_QM>  (944) 
0

>  <FF_Energy>  (944) 
6.59

>  <QM_Energy>  (944) 
0.55

>  <source>  (944) 
ETAM_MSM

>  <Index>  (944) 
5763

$$$$
ETAM-pdb3g79-B-LYS-355:MSM-pdb3g79-B-MET-390
     RDKit          3D

 20 18  0  0  0  0  0  0  0  0999 V2000
    1.2240    0.8669    0.0000 C   0  0  0  0  0  0  0  0  0  0  0  0
    1.3485    1.2435    0.9049 H   0  0  0  0  0  0  0  0  0  0  0  0
    1.1111    1.5784   -0.6760 H   0  0  0  0  0  0  0  0  0  0  0  0
    2.0835    0.2490   -0.2596 H   0  0  0  0  0  0  0  0  0  0  0  0
    0.0000    0.0000    0.0000 C   0  0  0  0  0  0  0  0  0  0  0  0
   -0.0011   -0.5771   -0.8161 H   0  0  0  0  0  0  0  0  0  0  0  0
   -0.0007   -0.5767    0.8170 H   0  0  0  0  0  0  0  0  0  0  0  0
   -1.2240    0.8413   -0.0000 N   0  0  0  0  0  4  0  0  0  0  0  0
   -1.0316    1.7094    0.4591 H   0  0  0  0  0  0  0  0  0  0  0  0
   -1.5065    1.0180   -0.9426 H   0  0  0  0  0  0  0  0  0  0  0  0
   -1.9571    0.3635    0.4844 H   0  0  0  0  0  0  0  0  0  0  0  0
   -1.4467   -2.0571    2.6414 C   0  0  0  0  0  0  0  0  0  0  0  0
   -1.3509   -2.3797    3.6291 H   0  0  0  0  0  0  0  0  0  0  0  0
   -0.5002   -1.6716    2.4287 H   0  0  0  0  0  0  0  0  0  0  0  0
   -1.5893   -2.9409    2.0195 H   0  0  0  0  0  0  0  0  0  0  0  0
   -2.7027   -0.7715    2.5094 S   0  0  0  0  0  0  0  0  0  0  0  0
   -4.1626   -1.6834    2.9881 C   0  0  0  0  0  0  0  0  0  0  0  0
   -4.4279   -1.4315    3.9205 H   0  0  0  0  0  0  0  0  0  0  0  0
   -4.9151   -1.4701    2.3622 H   0  0  0  0  0  0  0  0  0  0  0  0
   -3.9735   -2.6671    2.9533 H   0  0  0  0  0  0  0  0  0  0  0  0
  1  5  1  0
  5  8  1  0
  1  2  1  0
  1  3  1  0
  1  4  1  0
  5  6  1  0
  5  7  1  0
  8  9  1  0
  8 10  1  0
  8 11  1  0
 12 16  1  0
 16 17  1  0
 12 13  1  0
 12 14  1  0
 12 15  1  0
 17 18  1  0
 17 19  1  0
 17 20  1  0
M  CHG  1   8   1
M  END
>  <PDB_ID>  (945) 
pdb3g79

>  <RESIDUE_NAME>  (945) 
LYS   MET

>  <FRAG_NAME>  (945) 
ETAM   MSM

>  <FRAG_ATOM_NUM>  (945) 
fragi: 11  fragj: 9

>  <atom.prop.CHAIN_ID>  (945) 
A A A A A A A A A A A Z Z Z Z Z Z Z Z Z

>  <atom.prop.IS_HEAVY_ATOM>  (945) 
1 0 0 0 1 0 0 1 0 0 0 1 0 0 0 1 1 0 0 0

>  <DIFUSE_FUNC_ATOM>  (945) 
n/a

>  <FINAL_SINGLE_POINT_ENERGY>  (945) 
0

>  <NONCOV_INTER_ENERGY_QM>  (945) 
0

>  <FF_Energy>  (945) 
-4.66

>  <QM_Energy>  (945) 
-14.54

>  <source>  (945) 
ETAM_MSM

>  <Index>  (945) 
5767

$$$$
ETAM-pdb3g7g-A-LYS-132:MSM-pdb3g7g-A-MET-135
     RDKit          3D

 20 18  0  0  0  0  0  0  0  0999 V2000
    1.2916    0.7844    0.0000 C   0  0  0  0  0  0  0  0  0  0  0  0
    1.2608    1.4696    0.7142 H   0  0  0  0  0  0  0  0  0  0  0  0
    1.4242    1.1993   -0.8886 H   0  0  0  0  0  0  0  0  0  0  0  0
    2.1417    0.1315    0.1978 H   0  0  0  0  0  0  0  0  0  0  0  0
    0.0000    0.0000    0.0000 C   0  0  0  0  0  0  0  0  0  0  0  0
   -0.0243   -0.6118   -0.8165 H   0  0  0  0  0  0  0  0  0  0  0  0
   -0.0250   -0.6121    0.8166 H   0  0  0  0  0  0  0  0  0  0  0  0
   -1.2916    0.8179   -0.0000 N   0  0  0  0  0  4  0  0  0  0  0  0
   -1.7634    0.6546    0.8589 H   0  0  0  0  0  0  0  0  0  0  0  0
   -1.0523    1.7776   -0.0911 H   0  0  0  0  0  0  0  0  0  0  0  0
   -1.8482    0.5210   -0.7675 H   0  0  0  0  0  0  0  0  0  0  0  0
    1.3398    4.4513   -2.9940 C   0  0  0  0  0  0  0  0  0  0  0  0
    1.0398    4.9694   -3.8247 H   0  0  0  0  0  0  0  0  0  0  0  0
    1.9170    3.6806   -3.3422 H   0  0  0  0  0  0  0  0  0  0  0  0
    1.9892    5.1097   -2.4171 H   0  0  0  0  0  0  0  0  0  0  0  0
   -0.0930    3.8256   -2.0601 S   0  0  0  0  0  0  0  0  0  0  0  0
   -0.9883    5.3449   -1.8488 C   0  0  0  0  0  0  0  0  0  0  0  0
   -0.4085    6.0247   -1.3923 H   0  0  0  0  0  0  0  0  0  0  0  0
   -1.2695    5.7049   -2.7423 H   0  0  0  0  0  0  0  0  0  0  0  0
   -1.8065    5.1861   -1.2892 H   0  0  0  0  0  0  0  0  0  0  0  0
  1  5  1  0
  5  8  1  0
  1  2  1  0
  1  3  1  0
  1  4  1  0
  5  6  1  0
  5  7  1  0
  8  9  1  0
  8 10  1  0
  8 11  1  0
 12 16  1  0
 16 17  1  0
 12 13  1  0
 12 14  1  0
 12 15  1  0
 17 18  1  0
 17 19  1  0
 17 20  1  0
M  CHG  1   8   1
M  END
>  <PDB_ID>  (946) 
pdb3g7g

>  <RESIDUE_NAME>  (946) 
LYS   MET

>  <FRAG_NAME>  (946) 
ETAM   MSM

>  <FRAG_ATOM_NUM>  (946) 
fragi: 11  fragj: 9

>  <atom.prop.CHAIN_ID>  (946) 
A A A A A A A A A A A Z Z Z Z Z Z Z Z Z

>  <atom.prop.IS_HEAVY_ATOM>  (946) 
1 0 0 0 1 0 0 1 0 0 0 1 0 0 0 1 1 0 0 0

>  <DIFUSE_FUNC_ATOM>  (946) 
n/a

>  <FINAL_SINGLE_POINT_ENERGY>  (946) 
0

>  <NONCOV_INTER_ENERGY_QM>  (946) 
0

>  <FF_Energy>  (946) 
-5.31

>  <QM_Energy>  (946) 
-11.11

>  <source>  (946) 
ETAM_MSM

>  <Index>  (946) 
5769

$$$$
ETAM-pdb3g7g-D-LYS-132:MSM-pdb3g7g-D-MET-135
     RDKit          3D

 20 18  0  0  0  0  0  0  0  0999 V2000
    1.2962    0.8205   -0.0000 C   0  0  0  0  0  0  0  0  0  0  0  0
    1.2465    1.4986    0.7163 H   0  0  0  0  0  0  0  0  0  0  0  0
    1.4111    1.2376   -0.8874 H   0  0  0  0  0  0  0  0  0  0  0  0
    2.1613    0.1862    0.1929 H   0  0  0  0  0  0  0  0  0  0  0  0
    0.0000    0.0000    0.0000 C   0  0  0  0  0  0  0  0  0  0  0  0
    0.0019   -0.6106   -0.8166 H   0  0  0  0  0  0  0  0  0  0  0  0
    0.0018   -0.6101    0.8169 H   0  0  0  0  0  0  0  0  0  0  0  0
   -1.2962    0.7865    0.0000 N   0  0  0  0  0  4  0  0  0  0  0  0
   -2.0292    0.1915    0.3158 H   0  0  0  0  0  0  0  0  0  0  0  0
   -1.1954    1.5646    0.6119 H   0  0  0  0  0  0  0  0  0  0  0  0
   -1.4792    1.0976   -0.9275 H   0  0  0  0  0  0  0  0  0  0  0  0
    1.0795    4.1792   -3.5188 C   0  0  0  0  0  0  0  0  0  0  0  0
    0.7001    4.7939   -4.2448 H   0  0  0  0  0  0  0  0  0  0  0  0
    1.4930    3.3853   -4.0163 H   0  0  0  0  0  0  0  0  0  0  0  0
    1.8915    4.7166   -3.0289 H   0  0  0  0  0  0  0  0  0  0  0  0
   -0.1908    3.6491   -2.3734 S   0  0  0  0  0  0  0  0  0  0  0  0
   -1.1349    5.1981   -2.2457 C   0  0  0  0  0  0  0  0  0  0  0  0
   -2.0359    5.0603   -2.6477 H   0  0  0  0  0  0  0  0  0  0  0  0
   -1.2236    5.4434   -1.2837 H   0  0  0  0  0  0  0  0  0  0  0  0
   -0.6474    5.9147   -2.7382 H   0  0  0  0  0  0  0  0  0  0  0  0
  1  5  1  0
  5  8  1  0
  1  2  1  0
  1  3  1  0
  1  4  1  0
  5  6  1  0
  5  7  1  0
  8  9  1  0
  8 10  1  0
  8 11  1  0
 12 16  1  0
 16 17  1  0
 12 13  1  0
 12 14  1  0
 12 15  1  0
 17 18  1  0
 17 19  1  0
 17 20  1  0
M  CHG  1   8   1
M  END
>  <PDB_ID>  (947) 
pdb3g7g

>  <RESIDUE_NAME>  (947) 
LYS   MET

>  <FRAG_NAME>  (947) 
ETAM   MSM

>  <FRAG_ATOM_NUM>  (947) 
fragi: 11  fragj: 9

>  <atom.prop.CHAIN_ID>  (947) 
A A A A A A A A A A A Z Z Z Z Z Z Z Z Z

>  <atom.prop.IS_HEAVY_ATOM>  (947) 
1 0 0 0 1 0 0 1 0 0 0 1 0 0 0 1 1 0 0 0

>  <DIFUSE_FUNC_ATOM>  (947) 
n/a

>  <FINAL_SINGLE_POINT_ENERGY>  (947) 
0

>  <NONCOV_INTER_ENERGY_QM>  (947) 
0

>  <FF_Energy>  (947) 
-5.12

>  <QM_Energy>  (947) 
-10.58

>  <source>  (947) 
ETAM_MSM

>  <Index>  (947) 
5771

$$$$
ETAM-pdb3g7g-F-LYS-132:MSM-pdb3g7g-F-MET-135
     RDKit          3D

 20 18  0  0  0  0  0  0  0  0999 V2000
    1.2796    0.7968   -0.0000 C   0  0  0  0  0  0  0  0  0  0  0  0
    1.2909    1.4116    0.7775 H   0  0  0  0  0  0  0  0  0  0  0  0
    1.3604    1.3003   -0.8500 H   0  0  0  0  0  0  0  0  0  0  0  0
    2.1534    0.1503    0.0824 H   0  0  0  0  0  0  0  0  0  0  0  0
    0.0000    0.0000    0.0000 C   0  0  0  0  0  0  0  0  0  0  0  0
   -0.0104   -0.6148   -0.8159 H   0  0  0  0  0  0  0  0  0  0  0  0
   -0.0114   -0.6153    0.8165 H   0  0  0  0  0  0  0  0  0  0  0  0
   -1.2796    0.7957    0.0000 N   0  0  0  0  0  4  0  0  0  0  0  0
   -1.5797    0.9222   -0.9414 H   0  0  0  0  0  0  0  0  0  0  0  0
   -1.9708    0.2955    0.5147 H   0  0  0  0  0  0  0  0  0  0  0  0
   -1.1097    1.6801    0.4268 H   0  0  0  0  0  0  0  0  0  0  0  0
    1.3113    5.4341   -0.4134 C   0  0  0  0  0  0  0  0  0  0  0  0
    1.0599    6.3120   -0.9024 H   0  0  0  0  0  0  0  0  0  0  0  0
    1.8972    4.9238   -1.0985 H   0  0  0  0  0  0  0  0  0  0  0  0
    1.9417    5.6954    0.4366 H   0  0  0  0  0  0  0  0  0  0  0  0
   -0.2035    4.4651   -0.0293 S   0  0  0  0  0  0  0  0  0  0  0  0
   -1.1117    5.5834    1.0079 C   0  0  0  0  0  0  0  0  0  0  0  0
   -1.3512    5.1331    1.8718 H   0  0  0  0  0  0  0  0  0  0  0  0
   -0.5564    6.3949    1.2072 H   0  0  0  0  0  0  0  0  0  0  0  0
   -1.9554    5.8711    0.5463 H   0  0  0  0  0  0  0  0  0  0  0  0
  1  5  1  0
  5  8  1  0
  1  2  1  0
  1  3  1  0
  1  4  1  0
  5  6  1  0
  5  7  1  0
  8  9  1  0
  8 10  1  0
  8 11  1  0
 12 16  1  0
 16 17  1  0
 12 13  1  0
 12 14  1  0
 12 15  1  0
 17 18  1  0
 17 19  1  0
 17 20  1  0
M  CHG  1   8   1
M  END
>  <PDB_ID>  (948) 
pdb3g7g

>  <RESIDUE_NAME>  (948) 
LYS   MET

>  <FRAG_NAME>  (948) 
ETAM   MSM

>  <FRAG_ATOM_NUM>  (948) 
fragi: 11  fragj: 9

>  <atom.prop.CHAIN_ID>  (948) 
A A A A A A A A A A A Z Z Z Z Z Z Z Z Z

>  <atom.prop.IS_HEAVY_ATOM>  (948) 
1 0 0 0 1 0 0 1 0 0 0 1 0 0 0 1 1 0 0 0

>  <DIFUSE_FUNC_ATOM>  (948) 
n/a

>  <FINAL_SINGLE_POINT_ENERGY>  (948) 
0

>  <NONCOV_INTER_ENERGY_QM>  (948) 
0

>  <FF_Energy>  (948) 
-5.34

>  <QM_Energy>  (948) 
-11.69

>  <source>  (948) 
ETAM_MSM

>  <Index>  (948) 
5772

$$$$
ETAM-pdb3g7g-G-LYS-132:MSM-pdb3g7g-G-MET-135
     RDKit          3D

 20 18  0  0  0  0  0  0  0  0999 V2000
    1.3709    0.7989   -0.0000 C   0  0  0  0  0  0  0  0  0  0  0  0
    1.2922    1.5506    0.6250 H   0  0  0  0  0  0  0  0  0  0  0  0
    1.5626    1.0849   -0.9175 H   0  0  0  0  0  0  0  0  0  0  0  0
    2.2039    0.1801    0.3336 H   0  0  0  0  0  0  0  0  0  0  0  0
    0.0000    0.0000    0.0000 C   0  0  0  0  0  0  0  0  0  0  0  0
    0.0143   -0.6364   -0.8165 H   0  0  0  0  0  0  0  0  0  0  0  0
    0.0137   -0.6367    0.8166 H   0  0  0  0  0  0  0  0  0  0  0  0
   -1.3709    0.7299    0.0000 N   0  0  0  0  0  4  0  0  0  0  0  0
   -2.0751    0.0426    0.0989 H   0  0  0  0  0  0  0  0  0  0  0  0
   -1.3746    1.3601    0.7626 H   0  0  0  0  0  0  0  0  0  0  0  0
   -1.4546    1.2087   -0.8617 H   0  0  0  0  0  0  0  0  0  0  0  0
    1.2016    5.3928    0.8819 C   0  0  0  0  0  0  0  0  0  0  0  0
    1.0491    6.3043    0.4309 H   0  0  0  0  0  0  0  0  0  0  0  0
    1.9066    4.9212    0.3002 H   0  0  0  0  0  0  0  0  0  0  0  0
    1.6644    5.5891    1.8491 H   0  0  0  0  0  0  0  0  0  0  0  0
   -0.3623    4.4185    0.9309 S   0  0  0  0  0  0  0  0  0  0  0  0
   -1.3405    5.4267    1.9964 C   0  0  0  0  0  0  0  0  0  0  0  0
   -2.2246    5.6369    1.5653 H   0  0  0  0  0  0  0  0  0  0  0  0
   -1.5128    4.9516    2.8661 H   0  0  0  0  0  0  0  0  0  0  0  0
   -0.8659    6.2918    2.1922 H   0  0  0  0  0  0  0  0  0  0  0  0
  1  5  1  0
  5  8  1  0
  1  2  1  0
  1  3  1  0
  1  4  1  0
  5  6  1  0
  5  7  1  0
  8  9  1  0
  8 10  1  0
  8 11  1  0
 12 16  1  0
 16 17  1  0
 12 13  1  0
 12 14  1  0
 12 15  1  0
 17 18  1  0
 17 19  1  0
 17 20  1  0
M  CHG  1   8   1
M  END
>  <PDB_ID>  (949) 
pdb3g7g

>  <RESIDUE_NAME>  (949) 
LYS   MET

>  <FRAG_NAME>  (949) 
ETAM   MSM

>  <FRAG_ATOM_NUM>  (949) 
fragi: 11  fragj: 9

>  <atom.prop.CHAIN_ID>  (949) 
A A A A A A A A A A A Z Z Z Z Z Z Z Z Z

>  <atom.prop.IS_HEAVY_ATOM>  (949) 
1 0 0 0 1 0 0 1 0 0 0 1 0 0 0 1 1 0 0 0

>  <DIFUSE_FUNC_ATOM>  (949) 
n/a

>  <FINAL_SINGLE_POINT_ENERGY>  (949) 
0

>  <NONCOV_INTER_ENERGY_QM>  (949) 
0

>  <FF_Energy>  (949) 
-5.03

>  <QM_Energy>  (949) 
-10.64

>  <source>  (949) 
ETAM_MSM

>  <Index>  (949) 
5773

$$$$
ETAM-pdb3g7g-H-LYS-132:MSM-pdb3g7g-H-MET-135
     RDKit          3D

 20 18  0  0  0  0  0  0  0  0999 V2000
    1.3030    0.7958   -0.0000 C   0  0  0  0  0  0  0  0  0  0  0  0
    1.3283    1.3617    0.8078 H   0  0  0  0  0  0  0  0  0  0  0  0
    1.3437    1.3360   -0.8241 H   0  0  0  0  0  0  0  0  0  0  0  0
    2.1550    0.1163    0.0195 H   0  0  0  0  0  0  0  0  0  0  0  0
    0.0000    0.0000    0.0000 C   0  0  0  0  0  0  0  0  0  0  0  0
   -0.0046   -0.6207   -0.8161 H   0  0  0  0  0  0  0  0  0  0  0  0
   -0.0050   -0.6212    0.8163 H   0  0  0  0  0  0  0  0  0  0  0  0
   -1.3030    0.7793   -0.0000 N   0  0  0  0  0  4  0  0  0  0  0  0
   -2.0470    0.1520   -0.2091 H   0  0  0  0  0  0  0  0  0  0  0  0
   -1.4316    1.1816    0.9008 H   0  0  0  0  0  0  0  0  0  0  0  0
   -1.2456    1.4917   -0.6921 H   0  0  0  0  0  0  0  0  0  0  0  0
    1.4212    4.6858   -2.7268 C   0  0  0  0  0  0  0  0  0  0  0  0
    1.0895    5.2485   -3.5335 H   0  0  0  0  0  0  0  0  0  0  0  0
    1.8799    3.8668   -3.1708 H   0  0  0  0  0  0  0  0  0  0  0  0
    2.1627    5.2572   -2.1683 H   0  0  0  0  0  0  0  0  0  0  0  0
   -0.0362    4.1078   -1.7523 S   0  0  0  0  0  0  0  0  0  0  0  0
   -0.7109    5.6509   -1.2138 C   0  0  0  0  0  0  0  0  0  0  0  0
   -0.8672    5.6336   -0.2209 H   0  0  0  0  0  0  0  0  0  0  0  0
   -0.0768    6.4005   -1.4276 H   0  0  0  0  0  0  0  0  0  0  0  0
   -1.5861    5.8272   -1.6751 H   0  0  0  0  0  0  0  0  0  0  0  0
  1  5  1  0
  5  8  1  0
  1  2  1  0
  1  3  1  0
  1  4  1  0
  5  6  1  0
  5  7  1  0
  8  9  1  0
  8 10  1  0
  8 11  1  0
 12 16  1  0
 16 17  1  0
 12 13  1  0
 12 14  1  0
 12 15  1  0
 17 18  1  0
 17 19  1  0
 17 20  1  0
M  CHG  1   8   1
M  END
>  <PDB_ID>  (950) 
pdb3g7g

>  <RESIDUE_NAME>  (950) 
LYS   MET

>  <FRAG_NAME>  (950) 
ETAM   MSM

>  <FRAG_ATOM_NUM>  (950) 
fragi: 11  fragj: 9

>  <atom.prop.CHAIN_ID>  (950) 
A A A A A A A A A A A Z Z Z Z Z Z Z Z Z

>  <atom.prop.IS_HEAVY_ATOM>  (950) 
1 0 0 0 1 0 0 1 0 0 0 1 0 0 0 1 1 0 0 0

>  <DIFUSE_FUNC_ATOM>  (950) 
n/a

>  <FINAL_SINGLE_POINT_ENERGY>  (950) 
0

>  <NONCOV_INTER_ENERGY_QM>  (950) 
0

>  <FF_Energy>  (950) 
-5.05

>  <QM_Energy>  (950) 
-10.75

>  <source>  (950) 
ETAM_MSM

>  <Index>  (950) 
5774

$$$$
ETAM-pdb3g79-A-LYS-355:MSM-pdb3g79-A-MET-390
     RDKit          3D

 20 18  0  0  0  0  0  0  0  0999 V2000
    1.2340    0.8682    0.0000 C   0  0  0  0  0  0  0  0  0  0  0  0
    1.2117    1.4593    0.7997 H   0  0  0  0  0  0  0  0  0  0  0  0
    1.2455    1.4124   -0.8323 H   0  0  0  0  0  0  0  0  0  0  0  0
    2.1402    0.2635    0.0366 H   0  0  0  0  0  0  0  0  0  0  0  0
    0.0000    0.0000    0.0000 C   0  0  0  0  0  0  0  0  0  0  0  0
   -0.0010   -0.5751   -0.8165 H   0  0  0  0  0  0  0  0  0  0  0  0
   -0.0016   -0.5755    0.8161 H   0  0  0  0  0  0  0  0  0  0  0  0
   -1.2340    0.8441    0.0000 N   0  0  0  0  0  4  0  0  0  0  0  0
   -1.4312    1.1374    0.9337 H   0  0  0  0  0  0  0  0  0  0  0  0
   -1.0856    1.6430   -0.5800 H   0  0  0  0  0  0  0  0  0  0  0  0
   -1.9984    0.3080   -0.3540 H   0  0  0  0  0  0  0  0  0  0  0  0
   -1.8904   -1.6612    3.5743 C   0  0  0  0  0  0  0  0  0  0  0  0
   -2.4255   -1.9784    4.4160 H   0  0  0  0  0  0  0  0  0  0  0  0
   -1.0116   -1.2786    3.9970 H   0  0  0  0  0  0  0  0  0  0  0  0
   -1.6117   -2.5579    3.0208 H   0  0  0  0  0  0  0  0  0  0  0  0
   -2.7964   -0.3604    2.6893 S   0  0  0  0  0  0  0  0  0  0  0  0
   -4.3447   -1.1822    2.3768 C   0  0  0  0  0  0  0  0  0  0  0  0
   -4.2349   -1.8449    1.6320 H   0  0  0  0  0  0  0  0  0  0  0  0
   -4.6473   -1.6647    3.2023 H   0  0  0  0  0  0  0  0  0  0  0  0
   -5.0417   -0.5097    2.1169 H   0  0  0  0  0  0  0  0  0  0  0  0
  1  5  1  0
  5  8  1  0
  1  2  1  0
  1  3  1  0
  1  4  1  0
  5  6  1  0
  5  7  1  0
  8  9  1  0
  8 10  1  0
  8 11  1  0
 12 16  1  0
 16 17  1  0
 12 13  1  0
 12 14  1  0
 12 15  1  0
 17 18  1  0
 17 19  1  0
 17 20  1  0
M  CHG  1   8   1
M  END
>  <PDB_ID>  (951) 
pdb3g79

>  <RESIDUE_NAME>  (951) 
LYS   MET

>  <FRAG_NAME>  (951) 
ETAM   MSM

>  <FRAG_ATOM_NUM>  (951) 
fragi: 11  fragj: 9

>  <atom.prop.CHAIN_ID>  (951) 
A A A A A A A A A A A Z Z Z Z Z Z Z Z Z

>  <atom.prop.IS_HEAVY_ATOM>  (951) 
1 0 0 0 1 0 0 1 0 0 0 1 0 0 0 1 1 0 0 0

>  <DIFUSE_FUNC_ATOM>  (951) 
n/a

>  <FINAL_SINGLE_POINT_ENERGY>  (951) 
0

>  <NONCOV_INTER_ENERGY_QM>  (951) 
0

>  <FF_Energy>  (951) 
-5.65

>  <QM_Energy>  (951) 
-13.93

>  <source>  (951) 
ETAM_MSM

>  <Index>  (951) 
5781

$$$$
ETAM-pdb3g7z-B-LYS-4:MSM-pdb3g7z-B-MET-1
     RDKit          3D

 20 18  0  0  0  0  0  0  0  0999 V2000
    1.2556    0.8661    0.0000 C   0  0  0  0  0  0  0  0  0  0  0  0
    2.0457    0.2738   -0.1059 H   0  0  0  0  0  0  0  0  0  0  0  0
    1.2999    1.3550    0.8639 H   0  0  0  0  0  0  0  0  0  0  0  0
    1.2386    1.5864   -0.8179 H   0  0  0  0  0  0  0  0  0  0  0  0
    0.0000    0.0000    0.0000 C   0  0  0  0  0  0  0  0  0  0  0  0
    0.0142   -0.5902   -0.8160 H   0  0  0  0  0  0  0  0  0  0  0  0
    0.0138   -0.5901    0.8164 H   0  0  0  0  0  0  0  0  0  0  0  0
   -1.2556    0.8029   -0.0000 N   0  0  0  0  0  4  0  0  0  0  0  0
   -1.0777    1.6955    0.4132 H   0  0  0  0  0  0  0  0  0  0  0  0
   -1.5697    0.9254   -0.9402 H   0  0  0  0  0  0  0  0  0  0  0  0
   -1.9549    0.3226    0.5274 H   0  0  0  0  0  0  0  0  0  0  0  0
   -2.2147    3.8212   -2.6198 C   0  0  0  0  0  0  0  0  0  0  0  0
   -1.7574    3.9853   -1.7064 H   0  0  0  0  0  0  0  0  0  0  0  0
   -2.8328    4.6415   -2.7459 H   0  0  0  0  0  0  0  0  0  0  0  0
   -1.4472    3.8507   -3.3931 H   0  0  0  0  0  0  0  0  0  0  0  0
   -3.1776    2.2997   -2.5854 S   0  0  0  0  0  0  0  0  0  0  0  0
   -4.2382    2.6440   -1.1755 C   0  0  0  0  0  0  0  0  0  0  0  0
   -4.6441    3.5524   -1.2781 H   0  0  0  0  0  0  0  0  0  0  0  0
   -4.9638    1.9574   -1.1301 H   0  0  0  0  0  0  0  0  0  0  0  0
   -3.6960    2.6138   -0.3356 H   0  0  0  0  0  0  0  0  0  0  0  0
  1  5  1  0
  5  8  1  0
  1  2  1  0
  1  3  1  0
  1  4  1  0
  5  6  1  0
  5  7  1  0
  8  9  1  0
  8 10  1  0
  8 11  1  0
 12 16  1  0
 16 17  1  0
 12 13  1  0
 12 14  1  0
 12 15  1  0
 17 18  1  0
 17 19  1  0
 17 20  1  0
M  CHG  1   8   1
M  END
>  <PDB_ID>  (952) 
pdb3g7z

>  <RESIDUE_NAME>  (952) 
LYS   MET

>  <FRAG_NAME>  (952) 
ETAM   MSM

>  <FRAG_ATOM_NUM>  (952) 
fragi: 11  fragj: 9

>  <atom.prop.CHAIN_ID>  (952) 
A A A A A A A A A A A Z Z Z Z Z Z Z Z Z

>  <atom.prop.IS_HEAVY_ATOM>  (952) 
1 0 0 0 1 0 0 1 0 0 0 1 0 0 0 1 1 0 0 0

>  <DIFUSE_FUNC_ATOM>  (952) 
n/a

>  <FINAL_SINGLE_POINT_ENERGY>  (952) 
0

>  <NONCOV_INTER_ENERGY_QM>  (952) 
0

>  <FF_Energy>  (952) 
-3.62

>  <QM_Energy>  (952) 
-11.78

>  <source>  (952) 
ETAM_MSM

>  <Index>  (952) 
5787

$$$$
ETAM-pdb4cbw-A-LYS-285:MSM-pdb4cbw-A-MET-177
     RDKit          3D

 20 18  0  0  0  0  0  0  0  0999 V2000
    1.2467    0.8680    0.0000 C   0  0  0  0  0  0  0  0  0  0  0  0
    1.1997    1.4694    0.7601 H   0  0  0  0  0  0  0  0  0  0  0  0
    1.2656    1.3741   -0.8277 H   0  0  0  0  0  0  0  0  0  0  0  0
    2.1510    0.2640    0.0736 H   0  0  0  0  0  0  0  0  0  0  0  0
    0.0000    0.0000    0.0000 C   0  0  0  0  0  0  0  0  0  0  0  0
   -0.0018   -0.5552   -0.7958 H   0  0  0  0  0  0  0  0  0  0  0  0
   -0.0003   -0.5557    0.7952 H   0  0  0  0  0  0  0  0  0  0  0  0
   -1.2467    0.8118    0.0000 N   0  0  0  0  0  4  0  0  0  0  0  0
   -1.2730    1.3281   -0.7240 H   0  0  0  0  0  0  0  0  0  0  0  0
   -1.9583    0.2769    0.0004 H   0  0  0  0  0  0  0  0  0  0  0  0
   -1.2728    1.3281    0.7244 H   0  0  0  0  0  0  0  0  0  0  0  0
   -1.2212    3.2250    3.9662 C   0  0  0  0  0  0  0  0  0  0  0  0
   -0.9331    3.6518    3.1444 H   0  0  0  0  0  0  0  0  0  0  0  0
   -0.4731    3.1435    4.5789 H   0  0  0  0  0  0  0  0  0  0  0  0
   -1.9959    3.8343    4.4316 H   0  0  0  0  0  0  0  0  0  0  0  0
   -1.7957    1.5671    3.5631 S   0  0  0  0  0  0  0  0  0  0  0  0
   -3.1502    1.9354    2.4471 C   0  0  0  0  0  0  0  0  0  0  0  0
   -2.8046    2.4246    1.6838 H   0  0  0  0  0  0  0  0  0  0  0  0
   -3.5511    1.1027    2.1526 H   0  0  0  0  0  0  0  0  0  0  0  0
   -3.8074    2.4731    2.9149 H   0  0  0  0  0  0  0  0  0  0  0  0
  1  5  1  0
  5  8  1  0
  1  2  1  0
  1  3  1  0
  1  4  1  0
  5  6  1  0
  5  7  1  0
  8  9  1  0
  8 10  1  0
  8 11  1  0
 12 16  1  0
 16 17  1  0
 12 13  1  0
 12 14  1  0
 12 15  1  0
 17 18  1  0
 17 19  1  0
 17 20  1  0
M  CHG  1   8   1
M  END
>  <PDB_ID>  (953) 
pdb4cbw

>  <RESIDUE_NAME>  (953) 
LYS   MET

>  <FRAG_NAME>  (953) 
ETAM   MSM

>  <FRAG_ATOM_NUM>  (953) 
fragi: 11  fragj: 9

>  <atom.prop.CHAIN_ID>  (953) 
A A A A A A A A A A A Z Z Z Z Z Z Z Z Z

>  <atom.prop.IS_HEAVY_ATOM>  (953) 
1 0 0 0 1 0 0 1 0 0 0 1 0 0 0 1 1 0 0 0

>  <DIFUSE_FUNC_ATOM>  (953) 
n/a

>  <FINAL_SINGLE_POINT_ENERGY>  (953) 
0

>  <NONCOV_INTER_ENERGY_QM>  (953) 
0

>  <FF_Energy>  (953) 
-2.57

>  <QM_Energy>  (953) 
-8.4

>  <source>  (953) 
ETAM_MSM

>  <Index>  (953) 
5792

$$$$
ETAM-pdb3gbd-A-LYS-206:MSM-pdb3gbd-A-MET-93
     RDKit          3D

 20 18  0  0  0  0  0  0  0  0999 V2000
    1.2574    0.8673   -0.0000 C   0  0  0  0  0  0  0  0  0  0  0  0
    2.0459    0.2766    0.1181 H   0  0  0  0  0  0  0  0  0  0  0  0
    1.1899    1.5171    0.7467 H   0  0  0  0  0  0  0  0  0  0  0  0
    1.3581    1.4119   -0.9388 H   0  0  0  0  0  0  0  0  0  0  0  0
    0.0000    0.0000    0.0000 C   0  0  0  0  0  0  0  0  0  0  0  0
    0.0097   -0.5853   -0.8159 H   0  0  0  0  0  0  0  0  0  0  0  0
    0.0097   -0.5857    0.8158 H   0  0  0  0  0  0  0  0  0  0  0  0
   -1.2574    0.8149    0.0000 N   0  0  0  0  0  4  0  0  0  0  0  0
   -1.6845    0.7554   -0.8998 H   0  0  0  0  0  0  0  0  0  0  0  0
   -1.8779    0.4570    0.6942 H   0  0  0  0  0  0  0  0  0  0  0  0
   -1.0305    1.7645    0.2055 H   0  0  0  0  0  0  0  0  0  0  0  0
   -2.5183    0.5944    3.6272 C   0  0  0  0  0  0  0  0  0  0  0  0
   -3.2422    0.3728    2.9415 H   0  0  0  0  0  0  0  0  0  0  0  0
   -2.2556    1.5671    3.4574 H   0  0  0  0  0  0  0  0  0  0  0  0
   -2.9524    0.5215    4.6244 H   0  0  0  0  0  0  0  0  0  0  0  0
   -1.0695   -0.5039    3.4004 S   0  0  0  0  0  0  0  0  0  0  0  0
   -1.8803   -2.0893    3.1798 C   0  0  0  0  0  0  0  0  0  0  0  0
   -1.2322   -2.7444    2.7891 H   0  0  0  0  0  0  0  0  0  0  0  0
   -2.2014   -2.4271    4.0659 H   0  0  0  0  0  0  0  0  0  0  0  0
   -2.6595   -1.9831    2.5622 H   0  0  0  0  0  0  0  0  0  0  0  0
  1  5  1  0
  5  8  1  0
  1  2  1  0
  1  3  1  0
  1  4  1  0
  5  6  1  0
  5  7  1  0
  8  9  1  0
  8 10  1  0
  8 11  1  0
 12 16  1  0
 16 17  1  0
 12 13  1  0
 12 14  1  0
 12 15  1  0
 17 18  1  0
 17 19  1  0
 17 20  1  0
M  CHG  1   8   1
M  END
>  <PDB_ID>  (954) 
pdb3gbd

>  <RESIDUE_NAME>  (954) 
LYS   MET

>  <FRAG_NAME>  (954) 
ETAM   MSM

>  <FRAG_ATOM_NUM>  (954) 
fragi: 11  fragj: 9

>  <atom.prop.CHAIN_ID>  (954) 
A A A A A A A A A A A Z Z Z Z Z Z Z Z Z

>  <atom.prop.IS_HEAVY_ATOM>  (954) 
1 0 0 0 1 0 0 1 0 0 0 1 0 0 0 1 1 0 0 0

>  <DIFUSE_FUNC_ATOM>  (954) 
n/a

>  <FINAL_SINGLE_POINT_ENERGY>  (954) 
0

>  <NONCOV_INTER_ENERGY_QM>  (954) 
0

>  <FF_Energy>  (954) 
-3.75

>  <QM_Energy>  (954) 
-10.27

>  <source>  (954) 
ETAM_MSM

>  <Index>  (954) 
5798

$$$$
ETAM-pdb3g9w-C-LYS-752:MSM-pdb3g9w-C-MET-755
     RDKit          3D

 20 18  0  0  0  0  0  0  0  0999 V2000
    1.2475    0.8756    0.0000 C   0  0  0  0  0  0  0  0  0  0  0  0
    1.2447    1.4306    0.8269 H   0  0  0  0  0  0  0  0  0  0  0  0
    1.2251    1.4577   -0.8060 H   0  0  0  0  0  0  0  0  0  0  0  0
    2.1595    0.2791   -0.0205 H   0  0  0  0  0  0  0  0  0  0  0  0
    0.0000    0.0000    0.0000 C   0  0  0  0  0  0  0  0  0  0  0  0
    0.0116   -0.5814   -0.8158 H   0  0  0  0  0  0  0  0  0  0  0  0
    0.0121   -0.5818    0.8165 H   0  0  0  0  0  0  0  0  0  0  0  0
   -1.2475    0.8175   -0.0000 N   0  0  0  0  0  4  0  0  0  0  0  0
   -1.4858    1.0551    0.9404 H   0  0  0  0  0  0  0  0  0  0  0  0
   -1.0957    1.6508   -0.5291 H   0  0  0  0  0  0  0  0  0  0  0  0
   -1.9888    0.2885   -0.4118 H   0  0  0  0  0  0  0  0  0  0  0  0
    0.4071    3.3042    4.6197 C   0  0  0  0  0  0  0  0  0  0  0  0
    0.2894    2.4579    5.1929 H   0  0  0  0  0  0  0  0  0  0  0  0
    0.1064    4.0797    5.2257 H   0  0  0  0  0  0  0  0  0  0  0  0
    1.4693    3.4275    4.4085 H   0  0  0  0  0  0  0  0  0  0  0  0
   -0.6244    3.2186    3.1354 S   0  0  0  0  0  0  0  0  0  0  0  0
   -2.2599    3.1185    3.8612 C   0  0  0  0  0  0  0  0  0  0  0  0
   -2.7992    3.9141    3.5828 H   0  0  0  0  0  0  0  0  0  0  0  0
   -2.7147    2.2840    3.5491 H   0  0  0  0  0  0  0  0  0  0  0  0
   -2.1833    3.1017    4.8587 H   0  0  0  0  0  0  0  0  0  0  0  0
  1  5  1  0
  5  8  1  0
  1  2  1  0
  1  3  1  0
  1  4  1  0
  5  6  1  0
  5  7  1  0
  8  9  1  0
  8 10  1  0
  8 11  1  0
 12 16  1  0
 16 17  1  0
 12 13  1  0
 12 14  1  0
 12 15  1  0
 17 18  1  0
 17 19  1  0
 17 20  1  0
M  CHG  1   8   1
M  END
>  <PDB_ID>  (955) 
pdb3g9w

>  <RESIDUE_NAME>  (955) 
LYS   MET

>  <FRAG_NAME>  (955) 
ETAM   MSM

>  <FRAG_ATOM_NUM>  (955) 
fragi: 11  fragj: 9

>  <atom.prop.CHAIN_ID>  (955) 
A A A A A A A A A A A Z Z Z Z Z Z Z Z Z

>  <atom.prop.IS_HEAVY_ATOM>  (955) 
1 0 0 0 1 0 0 1 0 0 0 1 0 0 0 1 1 0 0 0

>  <DIFUSE_FUNC_ATOM>  (955) 
n/a

>  <FINAL_SINGLE_POINT_ENERGY>  (955) 
0

>  <NONCOV_INTER_ENERGY_QM>  (955) 
0

>  <FF_Energy>  (955) 
-4.41

>  <QM_Energy>  (955) 
-9.98

>  <source>  (955) 
ETAM_MSM

>  <Index>  (955) 
5802

$$$$
ETAM-pdb4ce5-B-LYS-301:MSM-pdb4ce5-B-MET-1
     RDKit          3D

 20 18  0  0  0  0  0  0  0  0999 V2000
    1.2533    0.8708   -0.0000 C   0  0  0  0  0  0  0  0  0  0  0  0
    1.2402    1.4451   -0.8114 H   0  0  0  0  0  0  0  0  0  0  0  0
    2.0508    0.2782   -0.0052 H   0  0  0  0  0  0  0  0  0  0  0  0
    1.2986    1.5114    0.8807 H   0  0  0  0  0  0  0  0  0  0  0  0
    0.0000    0.0000    0.0000 C   0  0  0  0  0  0  0  0  0  0  0  0
    0.0140   -0.5861   -0.8165 H   0  0  0  0  0  0  0  0  0  0  0  0
    0.0141   -0.5870    0.8165 H   0  0  0  0  0  0  0  0  0  0  0  0
   -1.2533    0.8078   -0.0000 N   0  0  0  0  0  4  0  0  0  0  0  0
   -1.4537    1.1069   -0.9318 H   0  0  0  0  0  0  0  0  0  0  0  0
   -2.0065    0.2478    0.3426 H   0  0  0  0  0  0  0  0  0  0  0  0
   -1.1320    1.6050    0.5896 H   0  0  0  0  0  0  0  0  0  0  0  0
   -1.4634    2.8640    3.3729 C   0  0  0  0  0  0  0  0  0  0  0  0
   -0.4430    2.7878    3.5178 H   0  0  0  0  0  0  0  0  0  0  0  0
   -1.8044    1.8906    3.4303 H   0  0  0  0  0  0  0  0  0  0  0  0
   -1.8831    3.4197    4.2115 H   0  0  0  0  0  0  0  0  0  0  0  0
   -1.8236    3.5685    1.7394 S   0  0  0  0  0  0  0  0  0  0  0  0
   -3.6123    3.4410    1.6856 C   0  0  0  0  0  0  0  0  0  0  0  0
   -4.0128    4.0718    2.3507 H   0  0  0  0  0  0  0  0  0  0  0  0
   -3.9370    3.6753    0.7685 H   0  0  0  0  0  0  0  0  0  0  0  0
   -3.8876    2.5053    1.9074 H   0  0  0  0  0  0  0  0  0  0  0  0
  1  5  1  0
  5  8  1  0
  1  2  1  0
  1  3  1  0
  1  4  1  0
  5  6  1  0
  5  7  1  0
  8  9  1  0
  8 10  1  0
  8 11  1  0
 12 16  1  0
 16 17  1  0
 12 13  1  0
 12 14  1  0
 12 15  1  0
 17 18  1  0
 17 19  1  0
 17 20  1  0
M  CHG  1   8   1
M  END
>  <PDB_ID>  (956) 
pdb4ce5

>  <RESIDUE_NAME>  (956) 
LYS   MET

>  <FRAG_NAME>  (956) 
ETAM   MSM

>  <FRAG_ATOM_NUM>  (956) 
fragi: 11  fragj: 9

>  <atom.prop.CHAIN_ID>  (956) 
A A A A A A A A A A A Z Z Z Z Z Z Z Z Z

>  <atom.prop.IS_HEAVY_ATOM>  (956) 
1 0 0 0 1 0 0 1 0 0 0 1 0 0 0 1 1 0 0 0

>  <DIFUSE_FUNC_ATOM>  (956) 
n/a

>  <FINAL_SINGLE_POINT_ENERGY>  (956) 
0

>  <NONCOV_INTER_ENERGY_QM>  (956) 
0

>  <FF_Energy>  (956) 
-4.91

>  <QM_Energy>  (956) 
-14.79

>  <source>  (956) 
ETAM_MSM

>  <Index>  (956) 
5803

$$$$
ETAM-pdb4c9b-B-LYS-330:MSM-pdb4c9b-A-MET-183
     RDKit          3D

 20 18  0  0  0  0  0  0  0  0999 V2000
    1.2494    0.8671    0.0000 C   0  0  0  0  0  0  0  0  0  0  0  0
    1.0457    1.7226    0.4610 H   0  0  0  0  0  0  0  0  0  0  0  0
    1.5240    1.0314   -0.9391 H   0  0  0  0  0  0  0  0  0  0  0  0
    2.0713    0.3784    0.5232 H   0  0  0  0  0  0  0  0  0  0  0  0
    0.0000    0.0000    0.0000 C   0  0  0  0  0  0  0  0  0  0  0  0
    0.0101   -0.5864   -0.8160 H   0  0  0  0  0  0  0  0  0  0  0  0
    0.0104   -0.5862    0.8162 H   0  0  0  0  0  0  0  0  0  0  0  0
   -1.2494    0.8130    0.0000 N   0  0  0  0  0  4  0  0  0  0  0  0
   -1.0991    1.6494   -0.5249 H   0  0  0  0  0  0  0  0  0  0  0  0
   -1.9878    0.2835   -0.4153 H   0  0  0  0  0  0  0  0  0  0  0  0
   -1.4915    1.0464    0.9406 H   0  0  0  0  0  0  0  0  0  0  0  0
   -3.7944    4.2538   -2.0947 C   0  0  0  0  0  0  0  0  0  0  0  0
   -4.6095    4.6741   -2.5226 H   0  0  0  0  0  0  0  0  0  0  0  0
   -3.3113    3.7270   -2.8120 H   0  0  0  0  0  0  0  0  0  0  0  0
   -3.1414    5.0270   -1.6899 H   0  0  0  0  0  0  0  0  0  0  0  0
   -4.2961    3.1558   -0.7518 S   0  0  0  0  0  0  0  0  0  0  0  0
   -5.2894    2.0029   -1.6858 C   0  0  0  0  0  0  0  0  0  0  0  0
   -4.9336    1.9278   -2.6190 H   0  0  0  0  0  0  0  0  0  0  0  0
   -5.2618    1.1010   -1.2493 H   0  0  0  0  0  0  0  0  0  0  0  0
   -6.2382    2.3229   -1.7201 H   0  0  0  0  0  0  0  0  0  0  0  0
  1  5  1  0
  5  8  1  0
  1  2  1  0
  1  3  1  0
  1  4  1  0
  5  6  1  0
  5  7  1  0
  8  9  1  0
  8 10  1  0
  8 11  1  0
 12 16  1  0
 16 17  1  0
 12 13  1  0
 12 14  1  0
 12 15  1  0
 17 18  1  0
 17 19  1  0
 17 20  1  0
M  CHG  1   8   1
M  END
>  <PDB_ID>  (957) 
pdb4c9b

>  <RESIDUE_NAME>  (957) 
LYS   MET

>  <FRAG_NAME>  (957) 
ETAM   MSM

>  <FRAG_ATOM_NUM>  (957) 
fragi: 11  fragj: 9

>  <atom.prop.CHAIN_ID>  (957) 
A A A A A A A A A A A Z Z Z Z Z Z Z Z Z

>  <atom.prop.IS_HEAVY_ATOM>  (957) 
1 0 0 0 1 0 0 1 0 0 0 1 0 0 0 1 1 0 0 0

>  <DIFUSE_FUNC_ATOM>  (957) 
n/a

>  <FINAL_SINGLE_POINT_ENERGY>  (957) 
0

>  <NONCOV_INTER_ENERGY_QM>  (957) 
0

>  <FF_Energy>  (957) 
-3.44

>  <QM_Energy>  (957) 
-9.05

>  <source>  (957) 
ETAM_MSM

>  <Index>  (957) 
5806

$$$$
ETAM-pdb4cpc-A-LYS-213:MSM-pdb4cpc-A-MET-217
     RDKit          3D

 20 18  0  0  0  0  0  0  0  0999 V2000
    1.2483    0.8575    0.0000 C   0  0  0  0  0  0  0  0  0  0  0  0
    2.0055    0.3251    0.3914 H   0  0  0  0  0  0  0  0  0  0  0  0
    1.0865    1.6616    0.5812 H   0  0  0  0  0  0  0  0  0  0  0  0
    1.5495    1.2041   -0.9886 H   0  0  0  0  0  0  0  0  0  0  0  0
    0.0000    0.0000    0.0000 C   0  0  0  0  0  0  0  0  0  0  0  0
    0.0058   -0.5890   -0.8163 H   0  0  0  0  0  0  0  0  0  0  0  0
    0.0052   -0.5879    0.8162 H   0  0  0  0  0  0  0  0  0  0  0  0
   -1.2483    0.8155   -0.0000 N   0  0  0  0  0  4  0  0  0  0  0  0
   -1.0091    1.7852    0.0208 H   0  0  0  0  0  0  0  0  0  0  0  0
   -1.7723    0.6165   -0.8270 H   0  0  0  0  0  0  0  0  0  0  0  0
   -1.7926    0.5862    0.8058 H   0  0  0  0  0  0  0  0  0  0  0  0
   -0.5297    0.3203   -5.1461 C   0  0  0  0  0  0  0  0  0  0  0  0
   -0.5336   -0.5649   -5.6513 H   0  0  0  0  0  0  0  0  0  0  0  0
    0.4392    0.5029   -4.8900 H   0  0  0  0  0  0  0  0  0  0  0  0
   -0.8848    1.1128   -5.8049 H   0  0  0  0  0  0  0  0  0  0  0  0
   -1.5593    0.1966   -3.6552 S   0  0  0  0  0  0  0  0  0  0  0  0
   -2.8929   -0.9864   -4.2380 C   0  0  0  0  0  0  0  0  0  0  0  0
   -3.7426   -0.4832   -4.2613 H   0  0  0  0  0  0  0  0  0  0  0  0
   -2.6328   -1.3022   -5.1371 H   0  0  0  0  0  0  0  0  0  0  0  0
   -2.9298   -1.7295   -3.5891 H   0  0  0  0  0  0  0  0  0  0  0  0
  1  5  1  0
  5  8  1  0
  1  2  1  0
  1  3  1  0
  1  4  1  0
  5  6  1  0
  5  7  1  0
  8  9  1  0
  8 10  1  0
  8 11  1  0
 12 16  1  0
 16 17  1  0
 12 13  1  0
 12 14  1  0
 12 15  1  0
 17 18  1  0
 17 19  1  0
 17 20  1  0
M  CHG  1   8   1
M  END
>  <PDB_ID>  (958) 
pdb4cpc

>  <RESIDUE_NAME>  (958) 
LYS   MET

>  <FRAG_NAME>  (958) 
ETAM   MSM

>  <FRAG_ATOM_NUM>  (958) 
fragi: 11  fragj: 9

>  <atom.prop.CHAIN_ID>  (958) 
A A A A A A A A A A A Z Z Z Z Z Z Z Z Z

>  <atom.prop.IS_HEAVY_ATOM>  (958) 
1 0 0 0 1 0 0 1 0 0 0 1 0 0 0 1 1 0 0 0

>  <DIFUSE_FUNC_ATOM>  (958) 
n/a

>  <FINAL_SINGLE_POINT_ENERGY>  (958) 
0

>  <NONCOV_INTER_ENERGY_QM>  (958) 
0

>  <FF_Energy>  (958) 
-5.32

>  <QM_Energy>  (958) 
-12.56

>  <source>  (958) 
ETAM_MSM

>  <Index>  (958) 
5858

$$$$
ETAM-pdb4cpc-C-LYS-213:MSM-pdb4cpc-C-MET-217
     RDKit          3D

 20 18  0  0  0  0  0  0  0  0999 V2000
    1.2617    0.8542    0.0000 C   0  0  0  0  0  0  0  0  0  0  0  0
    1.2008    1.5108   -0.7528 H   0  0  0  0  0  0  0  0  0  0  0  0
    2.0498    0.2556   -0.1437 H   0  0  0  0  0  0  0  0  0  0  0  0
    1.4054    1.4034    0.9305 H   0  0  0  0  0  0  0  0  0  0  0  0
    0.0000    0.0000    0.0000 C   0  0  0  0  0  0  0  0  0  0  0  0
    0.0084   -0.5920   -0.8164 H   0  0  0  0  0  0  0  0  0  0  0  0
    0.0076   -0.5930    0.8165 H   0  0  0  0  0  0  0  0  0  0  0  0
   -1.2617    0.8062   -0.0000 N   0  0  0  0  0  4  0  0  0  0  0  0
   -1.3644    1.2533   -0.8863 H   0  0  0  0  0  0  0  0  0  0  0  0
   -2.0376    0.2001    0.1648 H   0  0  0  0  0  0  0  0  0  0  0  0
   -1.2103    1.4941    0.7214 H   0  0  0  0  0  0  0  0  0  0  0  0
   -1.0437    0.8873    5.0872 C   0  0  0  0  0  0  0  0  0  0  0  0
   -1.9563    1.2838    5.3337 H   0  0  0  0  0  0  0  0  0  0  0  0
   -0.4888    1.6739    4.7352 H   0  0  0  0  0  0  0  0  0  0  0  0
   -0.5734    0.5052    5.9933 H   0  0  0  0  0  0  0  0  0  0  0  0
   -1.2282   -0.3799    3.8084 S   0  0  0  0  0  0  0  0  0  0  0  0
   -2.8604   -1.1222    4.3077 C   0  0  0  0  0  0  0  0  0  0  0  0
   -3.4529   -1.1062    3.5146 H   0  0  0  0  0  0  0  0  0  0  0  0
   -2.6892   -2.0497    4.6085 H   0  0  0  0  0  0  0  0  0  0  0  0
   -3.2291   -0.5703    5.0418 H   0  0  0  0  0  0  0  0  0  0  0  0
  1  5  1  0
  5  8  1  0
  1  2  1  0
  1  3  1  0
  1  4  1  0
  5  6  1  0
  5  7  1  0
  8  9  1  0
  8 10  1  0
  8 11  1  0
 12 16  1  0
 16 17  1  0
 12 13  1  0
 12 14  1  0
 12 15  1  0
 17 18  1  0
 17 19  1  0
 17 20  1  0
M  CHG  1   8   1
M  END
>  <PDB_ID>  (959) 
pdb4cpc

>  <RESIDUE_NAME>  (959) 
LYS   MET

>  <FRAG_NAME>  (959) 
ETAM   MSM

>  <FRAG_ATOM_NUM>  (959) 
fragi: 11  fragj: 9

>  <atom.prop.CHAIN_ID>  (959) 
A A A A A A A A A A A Z Z Z Z Z Z Z Z Z

>  <atom.prop.IS_HEAVY_ATOM>  (959) 
1 0 0 0 1 0 0 1 0 0 0 1 0 0 0 1 1 0 0 0

>  <DIFUSE_FUNC_ATOM>  (959) 
n/a

>  <FINAL_SINGLE_POINT_ENERGY>  (959) 
0

>  <NONCOV_INTER_ENERGY_QM>  (959) 
0

>  <FF_Energy>  (959) 
-4.32

>  <QM_Energy>  (959) 
-10.32

>  <source>  (959) 
ETAM_MSM

>  <Index>  (959) 
5860

$$$$
ETAM-pdb3gfx-A-LYS-290:MSM-pdb3gfx-B-MET-1
     RDKit          3D

 20 18  0  0  0  0  0  0  0  0999 V2000
    1.2539    0.8670    0.0000 C   0  0  0  0  0  0  0  0  0  0  0  0
    2.0480    0.2747    0.1029 H   0  0  0  0  0  0  0  0  0  0  0  0
    1.1975    1.5036    0.7633 H   0  0  0  0  0  0  0  0  0  0  0  0
    1.3543    1.4332   -0.9259 H   0  0  0  0  0  0  0  0  0  0  0  0
    0.0000    0.0000    0.0000 C   0  0  0  0  0  0  0  0  0  0  0  0
    0.0139   -0.5882   -0.8160 H   0  0  0  0  0  0  0  0  0  0  0  0
    0.0134   -0.5885    0.8163 H   0  0  0  0  0  0  0  0  0  0  0  0
   -1.2539    0.8050    0.0000 N   0  0  0  0  0  4  0  0  0  0  0  0
   -1.4311    1.1416   -0.9238 H   0  0  0  0  0  0  0  0  0  0  0  0
   -2.0150    0.2316    0.2993 H   0  0  0  0  0  0  0  0  0  0  0  0
   -1.1507    1.5788    0.6249 H   0  0  0  0  0  0  0  0  0  0  0  0
   -5.8097   -0.7465   -1.6455 C   0  0  0  0  0  0  0  0  0  0  0  0
   -6.5724   -0.0774   -1.5159 H   0  0  0  0  0  0  0  0  0  0  0  0
   -6.1061   -1.6037   -1.1732 H   0  0  0  0  0  0  0  0  0  0  0  0
   -5.7075   -0.9537   -2.7107 H   0  0  0  0  0  0  0  0  0  0  0  0
   -4.2776   -0.1161   -0.9211 S   0  0  0  0  0  0  0  0  0  0  0  0
   -4.4698    1.6408   -1.2157 C   0  0  0  0  0  0  0  0  0  0  0  0
   -3.7869    1.9466   -1.8807 H   0  0  0  0  0  0  0  0  0  0  0  0
   -5.3866    1.8228   -1.5750 H   0  0  0  0  0  0  0  0  0  0  0  0
   -4.3446    2.1406   -0.3576 H   0  0  0  0  0  0  0  0  0  0  0  0
  1  5  1  0
  5  8  1  0
  1  2  1  0
  1  3  1  0
  1  4  1  0
  5  6  1  0
  5  7  1  0
  8  9  1  0
  8 10  1  0
  8 11  1  0
 12 16  1  0
 16 17  1  0
 12 13  1  0
 12 14  1  0
 12 15  1  0
 17 18  1  0
 17 19  1  0
 17 20  1  0
M  CHG  1   8   1
M  END
>  <PDB_ID>  (960) 
pdb3gfx

>  <RESIDUE_NAME>  (960) 
LYS   MET

>  <FRAG_NAME>  (960) 
ETAM   MSM

>  <FRAG_ATOM_NUM>  (960) 
fragi: 11  fragj: 9

>  <atom.prop.CHAIN_ID>  (960) 
A A A A A A A A A A A Z Z Z Z Z Z Z Z Z

>  <atom.prop.IS_HEAVY_ATOM>  (960) 
1 0 0 0 1 0 0 1 0 0 0 1 0 0 0 1 1 0 0 0

>  <DIFUSE_FUNC_ATOM>  (960) 
n/a

>  <FINAL_SINGLE_POINT_ENERGY>  (960) 
0

>  <NONCOV_INTER_ENERGY_QM>  (960) 
0

>  <FF_Energy>  (960) 
-4.65

>  <QM_Energy>  (960) 
-10.52

>  <source>  (960) 
ETAM_MSM

>  <Index>  (960) 
5866

$$$$
ETAM-pdb4cru-B-LYS-215:MSM-pdb4cru-B-MET-211
     RDKit          3D

 20 18  0  0  0  0  0  0  0  0999 V2000
    1.2382    0.8787   -0.0000 C   0  0  0  0  0  0  0  0  0  0  0  0
    1.1973    1.4553    0.7787 H   0  0  0  0  0  0  0  0  0  0  0  0
    1.2277    1.4126   -0.8098 H   0  0  0  0  0  0  0  0  0  0  0  0
    2.1626    0.3021    0.0333 H   0  0  0  0  0  0  0  0  0  0  0  0
    0.0000    0.0000    0.0000 C   0  0  0  0  0  0  0  0  0  0  0  0
   -0.0038   -0.5530   -0.7973 H   0  0  0  0  0  0  0  0  0  0  0  0
   -0.0037   -0.5535    0.7966 H   0  0  0  0  0  0  0  0  0  0  0  0
   -1.2382    0.8355    0.0000 N   0  0  0  0  0  4  0  0  0  0  0  0
   -1.2563    1.3526   -0.7248 H   0  0  0  0  0  0  0  0  0  0  0  0
   -1.9586    0.3118    0.0000 H   0  0  0  0  0  0  0  0  0  0  0  0
   -1.2571    1.3530    0.7245 H   0  0  0  0  0  0  0  0  0  0  0  0
    0.5574   -1.4096    4.4067 C   0  0  0  0  0  0  0  0  0  0  0  0
    1.1869   -1.8490    3.8136 H   0  0  0  0  0  0  0  0  0  0  0  0
   -0.1933   -1.9976    4.5831 H   0  0  0  0  0  0  0  0  0  0  0  0
    1.0596   -1.1908    5.3490 H   0  0  0  0  0  0  0  0  0  0  0  0
   -0.0746    0.0503    3.5540 S   0  0  0  0  0  0  0  0  0  0  0  0
   -1.4861    0.4645    4.5799 C   0  0  0  0  0  0  0  0  0  0  0  0
   -1.1779    0.6434    5.4818 H   0  0  0  0  0  0  0  0  0  0  0  0
   -1.9210    1.2511    4.2157 H   0  0  0  0  0  0  0  0  0  0  0  0
   -2.1037   -0.2841    4.5827 H   0  0  0  0  0  0  0  0  0  0  0  0
  1  5  1  0
  5  8  1  0
  1  2  1  0
  1  3  1  0
  1  4  1  0
  5  6  1  0
  5  7  1  0
  8  9  1  0
  8 10  1  0
  8 11  1  0
 12 16  1  0
 16 17  1  0
 12 13  1  0
 12 14  1  0
 12 15  1  0
 17 18  1  0
 17 19  1  0
 17 20  1  0
M  CHG  1   8   1
M  END
>  <PDB_ID>  (961) 
pdb4cru

>  <RESIDUE_NAME>  (961) 
LYS   MET

>  <FRAG_NAME>  (961) 
ETAM   MSM

>  <FRAG_ATOM_NUM>  (961) 
fragi: 11  fragj: 9

>  <atom.prop.CHAIN_ID>  (961) 
A A A A A A A A A A A Z Z Z Z Z Z Z Z Z

>  <atom.prop.IS_HEAVY_ATOM>  (961) 
1 0 0 0 1 0 0 1 0 0 0 1 0 0 0 1 1 0 0 0

>  <DIFUSE_FUNC_ATOM>  (961) 
n/a

>  <FINAL_SINGLE_POINT_ENERGY>  (961) 
0

>  <NONCOV_INTER_ENERGY_QM>  (961) 
0

>  <FF_Energy>  (961) 
-4.56

>  <QM_Energy>  (961) 
-10.87

>  <source>  (961) 
ETAM_MSM

>  <Index>  (961) 
5879

$$$$
ETAM-pdb3gk7-A-LYS-372:MSM-pdb3gk7-A-MET-358
     RDKit          3D

 20 18  0  0  0  0  0  0  0  0999 V2000
    1.1950    0.9214   -0.0000 C   0  0  0  0  0  0  0  0  0  0  0  0
    1.8944    0.5386    0.5998 H   0  0  0  0  0  0  0  0  0  0  0  0
    0.9092    1.8147    0.3380 H   0  0  0  0  0  0  0  0  0  0  0  0
    1.6112    1.0366   -1.0009 H   0  0  0  0  0  0  0  0  0  0  0  0
    0.0000    0.0000    0.0000 C   0  0  0  0  0  0  0  0  0  0  0  0
    0.0141   -0.5522   -0.8157 H   0  0  0  0  0  0  0  0  0  0  0  0
    0.0142   -0.5520    0.8167 H   0  0  0  0  0  0  0  0  0  0  0  0
   -1.1950    0.8605    0.0000 N   0  0  0  0  0  4  0  0  0  0  0  0
   -1.7656    0.6498    0.7966 H   0  0  0  0  0  0  0  0  0  0  0  0
   -0.9193    1.8231    0.0385 H   0  0  0  0  0  0  0  0  0  0  0  0
   -1.7259    0.7036   -0.8356 H   0  0  0  0  0  0  0  0  0  0  0  0
   -3.2306    3.9996   -1.2270 C   0  0  0  0  0  0  0  0  0  0  0  0
   -3.9977    4.6124   -1.5249 H   0  0  0  0  0  0  0  0  0  0  0  0
   -2.5726    4.6071   -0.7278 H   0  0  0  0  0  0  0  0  0  0  0  0
   -3.6295    3.2726   -0.5196 H   0  0  0  0  0  0  0  0  0  0  0  0
   -2.4342    3.2288   -2.6551 S   0  0  0  0  0  0  0  0  0  0  0  0
   -1.6982    4.6909   -3.3864 C   0  0  0  0  0  0  0  0  0  0  0  0
   -0.7607    4.4867   -3.6718 H   0  0  0  0  0  0  0  0  0  0  0  0
   -2.2343    4.9728   -4.1834 H   0  0  0  0  0  0  0  0  0  0  0  0
   -1.6871    5.4319   -2.7140 H   0  0  0  0  0  0  0  0  0  0  0  0
  1  5  1  0
  5  8  1  0
  1  2  1  0
  1  3  1  0
  1  4  1  0
  5  6  1  0
  5  7  1  0
  8  9  1  0
  8 10  1  0
  8 11  1  0
 12 16  1  0
 16 17  1  0
 12 13  1  0
 12 14  1  0
 12 15  1  0
 17 18  1  0
 17 19  1  0
 17 20  1  0
M  CHG  1   8   1
M  END
>  <PDB_ID>  (962) 
pdb3gk7

>  <RESIDUE_NAME>  (962) 
LYS   MET

>  <FRAG_NAME>  (962) 
ETAM   MSM

>  <FRAG_ATOM_NUM>  (962) 
fragi: 11  fragj: 9

>  <atom.prop.CHAIN_ID>  (962) 
A A A A A A A A A A A Z Z Z Z Z Z Z Z Z

>  <atom.prop.IS_HEAVY_ATOM>  (962) 
1 0 0 0 1 0 0 1 0 0 0 1 0 0 0 1 1 0 0 0

>  <DIFUSE_FUNC_ATOM>  (962) 
n/a

>  <FINAL_SINGLE_POINT_ENERGY>  (962) 
0

>  <NONCOV_INTER_ENERGY_QM>  (962) 
0

>  <FF_Energy>  (962) 
-3.97

>  <QM_Energy>  (962) 
-9.76

>  <source>  (962) 
ETAM_MSM

>  <Index>  (962) 
5885

$$$$
ETAM-pdb3glc-D-LYS-203:MSM-pdb3glc-D-MET-86
     RDKit          3D

 20 18  0  0  0  0  0  0  0  0999 V2000
    1.2553    0.8479    0.0000 C   0  0  0  0  0  0  0  0  0  0  0  0
    1.2983    1.3535    0.8511 H   0  0  0  0  0  0  0  0  0  0  0  0
    1.2252    1.4628   -0.7768 H   0  0  0  0  0  0  0  0  0  0  0  0
    2.1398    0.2161   -0.0818 H   0  0  0  0  0  0  0  0  0  0  0  0
    0.0000    0.0000    0.0000 C   0  0  0  0  0  0  0  0  0  0  0  0
    0.0002   -0.5896   -0.8159 H   0  0  0  0  0  0  0  0  0  0  0  0
   -0.0003   -0.5898    0.8162 H   0  0  0  0  0  0  0  0  0  0  0  0
   -1.2553    0.8208    0.0000 N   0  0  0  0  0  4  0  0  0  0  0  0
   -1.6893    0.7527   -0.8960 H   0  0  0  0  0  0  0  0  0  0  0  0
   -1.8721    0.4727    0.7027 H   0  0  0  0  0  0  0  0  0  0  0  0
   -1.0233    1.7719    0.1930 H   0  0  0  0  0  0  0  0  0  0  0  0
   -5.4475   -0.8450    2.3391 C   0  0  0  0  0  0  0  0  0  0  0  0
   -5.8131   -0.0307    1.8366 H   0  0  0  0  0  0  0  0  0  0  0  0
   -5.9378   -0.8587    3.2384 H   0  0  0  0  0  0  0  0  0  0  0  0
   -5.7215   -1.7420    1.7837 H   0  0  0  0  0  0  0  0  0  0  0  0
   -3.6917   -0.7307    2.5631 S   0  0  0  0  0  0  0  0  0  0  0  0
   -3.5530    0.8396    3.3568 C   0  0  0  0  0  0  0  0  0  0  0  0
   -3.4029    0.7196    4.3436 H   0  0  0  0  0  0  0  0  0  0  0  0
   -2.7805    1.3565    2.9744 H   0  0  0  0  0  0  0  0  0  0  0  0
   -4.3944    1.3737    3.2225 H   0  0  0  0  0  0  0  0  0  0  0  0
  1  5  1  0
  5  8  1  0
  1  2  1  0
  1  3  1  0
  1  4  1  0
  5  6  1  0
  5  7  1  0
  8  9  1  0
  8 10  1  0
  8 11  1  0
 12 16  1  0
 16 17  1  0
 12 13  1  0
 12 14  1  0
 12 15  1  0
 17 18  1  0
 17 19  1  0
 17 20  1  0
M  CHG  1   8   1
M  END
>  <PDB_ID>  (963) 
pdb3glc

>  <RESIDUE_NAME>  (963) 
LYS   MET

>  <FRAG_NAME>  (963) 
ETAM   MSM

>  <FRAG_ATOM_NUM>  (963) 
fragi: 11  fragj: 9

>  <atom.prop.CHAIN_ID>  (963) 
A A A A A A A A A A A Z Z Z Z Z Z Z Z Z

>  <atom.prop.IS_HEAVY_ATOM>  (963) 
1 0 0 0 1 0 0 1 0 0 0 1 0 0 0 1 1 0 0 0

>  <DIFUSE_FUNC_ATOM>  (963) 
n/a

>  <FINAL_SINGLE_POINT_ENERGY>  (963) 
0

>  <NONCOV_INTER_ENERGY_QM>  (963) 
0

>  <FF_Energy>  (963) 
-3.89

>  <QM_Energy>  (963) 
-10.86

>  <source>  (963) 
ETAM_MSM

>  <Index>  (963) 
5890

$$$$
ETAM-pdb3glc-F-LYS-203:MSM-pdb3glc-F-MET-86
     RDKit          3D

 20 18  0  0  0  0  0  0  0  0999 V2000
    1.2276    0.8593   -0.0000 C   0  0  0  0  0  0  0  0  0  0  0  0
    1.2745    1.3505    0.8636 H   0  0  0  0  0  0  0  0  0  0  0  0
    1.1700    1.4992   -0.7589 H   0  0  0  0  0  0  0  0  0  0  0  0
    2.1189    0.2420   -0.1130 H   0  0  0  0  0  0  0  0  0  0  0  0
    0.0000    0.0000    0.0000 C   0  0  0  0  0  0  0  0  0  0  0  0
    0.0023   -0.5847   -0.8163 H   0  0  0  0  0  0  0  0  0  0  0  0
    0.0022   -0.5845    0.8162 H   0  0  0  0  0  0  0  0  0  0  0  0
   -1.2276    0.8261    0.0000 N   0  0  0  0  0  4  0  0  0  0  0  0
   -1.1767    1.5028    0.7352 H   0  0  0  0  0  0  0  0  0  0  0  0
   -1.3156    1.2972   -0.8792 H   0  0  0  0  0  0  0  0  0  0  0  0
   -2.0264    0.2399    0.1436 H   0  0  0  0  0  0  0  0  0  0  0  0
   -5.4154   -0.9539    2.3783 C   0  0  0  0  0  0  0  0  0  0  0  0
   -5.8527   -0.1021    2.0130 H   0  0  0  0  0  0  0  0  0  0  0  0
   -5.8199   -1.0940    3.3096 H   0  0  0  0  0  0  0  0  0  0  0  0
   -5.7314   -1.7857    1.7488 H   0  0  0  0  0  0  0  0  0  0  0  0
   -3.6274   -0.7824    2.4644 S   0  0  0  0  0  0  0  0  0  0  0  0
   -3.5572    0.7212    3.4082 C   0  0  0  0  0  0  0  0  0  0  0  0
   -4.4721    1.1281    3.4742 H   0  0  0  0  0  0  0  0  0  0  0  0
   -3.2185    0.5301    4.3330 H   0  0  0  0  0  0  0  0  0  0  0  0
   -2.9405    1.3766    2.9644 H   0  0  0  0  0  0  0  0  0  0  0  0
  1  5  1  0
  5  8  1  0
  1  2  1  0
  1  3  1  0
  1  4  1  0
  5  6  1  0
  5  7  1  0
  8  9  1  0
  8 10  1  0
  8 11  1  0
 12 16  1  0
 16 17  1  0
 12 13  1  0
 12 14  1  0
 12 15  1  0
 17 18  1  0
 17 19  1  0
 17 20  1  0
M  CHG  1   8   1
M  END
>  <PDB_ID>  (964) 
pdb3glc

>  <RESIDUE_NAME>  (964) 
LYS   MET

>  <FRAG_NAME>  (964) 
ETAM   MSM

>  <FRAG_ATOM_NUM>  (964) 
fragi: 11  fragj: 9

>  <atom.prop.CHAIN_ID>  (964) 
A A A A A A A A A A A Z Z Z Z Z Z Z Z Z

>  <atom.prop.IS_HEAVY_ATOM>  (964) 
1 0 0 0 1 0 0 1 0 0 0 1 0 0 0 1 1 0 0 0

>  <DIFUSE_FUNC_ATOM>  (964) 
n/a

>  <FINAL_SINGLE_POINT_ENERGY>  (964) 
0

>  <NONCOV_INTER_ENERGY_QM>  (964) 
0

>  <FF_Energy>  (964) 
-4.1

>  <QM_Energy>  (964) 
-10.75

>  <source>  (964) 
ETAM_MSM

>  <Index>  (964) 
5892

$$$$
ETAM-pdb3glc-O-LYS-203:MSM-pdb3glc-O-MET-86
     RDKit          3D

 20 18  0  0  0  0  0  0  0  0999 V2000
    1.2261    0.8355    0.0000 C   0  0  0  0  0  0  0  0  0  0  0  0
    1.2948    1.3174    0.8697 H   0  0  0  0  0  0  0  0  0  0  0  0
    1.1764    1.4906   -0.7491 H   0  0  0  0  0  0  0  0  0  0  0  0
    2.1102    0.2116   -0.1306 H   0  0  0  0  0  0  0  0  0  0  0  0
    0.0000    0.0000    0.0000 C   0  0  0  0  0  0  0  0  0  0  0  0
   -0.0176   -0.5841   -0.8164 H   0  0  0  0  0  0  0  0  0  0  0  0
   -0.0175   -0.5840    0.8162 H   0  0  0  0  0  0  0  0  0  0  0  0
   -1.2261    0.8509    0.0000 N   0  0  0  0  0  4  0  0  0  0  0  0
   -1.7517    0.6706   -0.8302 H   0  0  0  0  0  0  0  0  0  0  0  0
   -1.7790    0.6325    0.8026 H   0  0  0  0  0  0  0  0  0  0  0  0
   -0.9594    1.8134    0.0268 H   0  0  0  0  0  0  0  0  0  0  0  0
   -5.4206   -0.8015    2.2627 C   0  0  0  0  0  0  0  0  0  0  0  0
   -5.7791    0.0486    1.8086 H   0  0  0  0  0  0  0  0  0  0  0  0
   -5.8734   -0.8248    3.1854 H   0  0  0  0  0  0  0  0  0  0  0  0
   -5.7737   -1.6610    1.6928 H   0  0  0  0  0  0  0  0  0  0  0  0
   -3.6343   -0.7444    2.4208 S   0  0  0  0  0  0  0  0  0  0  0  0
   -3.5277    0.7843    3.3279 C   0  0  0  0  0  0  0  0  0  0  0  0
   -4.0555    1.4965    2.8598 H   0  0  0  0  0  0  0  0  0  0  0  0
   -3.8956    0.6589    4.2525 H   0  0  0  0  0  0  0  0  0  0  0  0
   -2.5703    1.0762    3.3928 H   0  0  0  0  0  0  0  0  0  0  0  0
  1  5  1  0
  5  8  1  0
  1  2  1  0
  1  3  1  0
  1  4  1  0
  5  6  1  0
  5  7  1  0
  8  9  1  0
  8 10  1  0
  8 11  1  0
 12 16  1  0
 16 17  1  0
 12 13  1  0
 12 14  1  0
 12 15  1  0
 17 18  1  0
 17 19  1  0
 17 20  1  0
M  CHG  1   8   1
M  END
>  <PDB_ID>  (965) 
pdb3glc

>  <RESIDUE_NAME>  (965) 
LYS   MET

>  <FRAG_NAME>  (965) 
ETAM   MSM

>  <FRAG_ATOM_NUM>  (965) 
fragi: 11  fragj: 9

>  <atom.prop.CHAIN_ID>  (965) 
A A A A A A A A A A A Z Z Z Z Z Z Z Z Z

>  <atom.prop.IS_HEAVY_ATOM>  (965) 
1 0 0 0 1 0 0 1 0 0 0 1 0 0 0 1 1 0 0 0

>  <DIFUSE_FUNC_ATOM>  (965) 
n/a

>  <FINAL_SINGLE_POINT_ENERGY>  (965) 
0

>  <NONCOV_INTER_ENERGY_QM>  (965) 
0

>  <FF_Energy>  (965) 
-4.34

>  <QM_Energy>  (965) 
-11.06

>  <source>  (965) 
ETAM_MSM

>  <Index>  (965) 
5896

$$$$
ETAM-pdb3glc-A-LYS-203:MSM-pdb3glc-A-MET-86
     RDKit          3D

 20 18  0  0  0  0  0  0  0  0999 V2000
    1.2090    0.8584   -0.0000 C   0  0  0  0  0  0  0  0  0  0  0  0
    1.2577    1.3628    0.8540 H   0  0  0  0  0  0  0  0  0  0  0  0
    1.1737    1.4808   -0.7721 H   0  0  0  0  0  0  0  0  0  0  0  0
    2.1013    0.2390   -0.0907 H   0  0  0  0  0  0  0  0  0  0  0  0
    0.0000    0.0000    0.0000 C   0  0  0  0  0  0  0  0  0  0  0  0
    0.0130   -0.5927   -0.8165 H   0  0  0  0  0  0  0  0  0  0  0  0
    0.0123   -0.5927    0.8162 H   0  0  0  0  0  0  0  0  0  0  0  0
   -1.2090    0.8009    0.0000 N   0  0  0  0  0  4  0  0  0  0  0  0
   -1.6943    0.7032   -0.8764 H   0  0  0  0  0  0  0  0  0  0  0  0
   -1.8234    0.5082    0.7404 H   0  0  0  0  0  0  0  0  0  0  0  0
   -0.9862    1.7730    0.1354 H   0  0  0  0  0  0  0  0  0  0  0  0
   -5.2650   -0.8320    2.5610 C   0  0  0  0  0  0  0  0  0  0  0  0
   -5.6523   -0.0292    2.0384 H   0  0  0  0  0  0  0  0  0  0  0  0
   -5.7548   -0.8077    3.4701 H   0  0  0  0  0  0  0  0  0  0  0  0
   -5.5618   -1.7439    2.0428 H   0  0  0  0  0  0  0  0  0  0  0  0
   -3.4993   -0.6673    2.7778 S   0  0  0  0  0  0  0  0  0  0  0  0
   -3.3894    0.9714    3.4016 C   0  0  0  0  0  0  0  0  0  0  0  0
   -2.8475    0.9903    4.2501 H   0  0  0  0  0  0  0  0  0  0  0  0
   -2.9481    1.5765    2.7288 H   0  0  0  0  0  0  0  0  0  0  0  0
   -4.3065    1.3345    3.6023 H   0  0  0  0  0  0  0  0  0  0  0  0
  1  5  1  0
  5  8  1  0
  1  2  1  0
  1  3  1  0
  1  4  1  0
  5  6  1  0
  5  7  1  0
  8  9  1  0
  8 10  1  0
  8 11  1  0
 12 16  1  0
 16 17  1  0
 12 13  1  0
 12 14  1  0
 12 15  1  0
 17 18  1  0
 17 19  1  0
 17 20  1  0
M  CHG  1   8   1
M  END
>  <PDB_ID>  (966) 
pdb3glc

>  <RESIDUE_NAME>  (966) 
LYS   MET

>  <FRAG_NAME>  (966) 
ETAM   MSM

>  <FRAG_ATOM_NUM>  (966) 
fragi: 11  fragj: 9

>  <atom.prop.CHAIN_ID>  (966) 
A A A A A A A A A A A Z Z Z Z Z Z Z Z Z

>  <atom.prop.IS_HEAVY_ATOM>  (966) 
1 0 0 0 1 0 0 1 0 0 0 1 0 0 0 1 1 0 0 0

>  <DIFUSE_FUNC_ATOM>  (966) 
n/a

>  <FINAL_SINGLE_POINT_ENERGY>  (966) 
0

>  <NONCOV_INTER_ENERGY_QM>  (966) 
0

>  <FF_Energy>  (966) 
-3.78

>  <QM_Energy>  (966) 
-10.61

>  <source>  (966) 
ETAM_MSM

>  <Index>  (966) 
5902

$$$$
ETAM-pdb3glc-B-LYS-203:MSM-pdb3glc-B-MET-86
     RDKit          3D

 20 18  0  0  0  0  0  0  0  0999 V2000
    1.2624    0.8205    0.0000 C   0  0  0  0  0  0  0  0  0  0  0  0
    1.3041    1.3461    0.8460 H   0  0  0  0  0  0  0  0  0  0  0  0
    1.2437    1.4377   -0.7834 H   0  0  0  0  0  0  0  0  0  0  0  0
    2.1469    0.1870   -0.0671 H   0  0  0  0  0  0  0  0  0  0  0  0
    0.0000    0.0000    0.0000 C   0  0  0  0  0  0  0  0  0  0  0  0
   -0.0068   -0.6021   -0.8167 H   0  0  0  0  0  0  0  0  0  0  0  0
   -0.0080   -0.6022    0.8161 H   0  0  0  0  0  0  0  0  0  0  0  0
   -1.2624    0.8108    0.0000 N   0  0  0  0  0  4  0  0  0  0  0  0
   -1.7471    0.6594   -0.8587 H   0  0  0  0  0  0  0  0  0  0  0  0
   -1.8330    0.5250    0.7671 H   0  0  0  0  0  0  0  0  0  0  0  0
   -1.0293    1.7766    0.0912 H   0  0  0  0  0  0  0  0  0  0  0  0
   -5.3439   -0.7392    2.3810 C   0  0  0  0  0  0  0  0  0  0  0  0
   -5.7555    0.0502    1.8594 H   0  0  0  0  0  0  0  0  0  0  0  0
   -5.7658   -0.6796    3.3204 H   0  0  0  0  0  0  0  0  0  0  0  0
   -5.6749   -1.6672    1.9148 H   0  0  0  0  0  0  0  0  0  0  0  0
   -3.5419   -0.5614    2.4823 S   0  0  0  0  0  0  0  0  0  0  0  0
   -3.5190    0.9818    3.4037 C   0  0  0  0  0  0  0  0  0  0  0  0
   -4.1329    1.6391    2.9661 H   0  0  0  0  0  0  0  0  0  0  0  0
   -3.8230    0.8135    4.3420 H   0  0  0  0  0  0  0  0  0  0  0  0
   -2.5888    1.3491    3.4143 H   0  0  0  0  0  0  0  0  0  0  0  0
  1  5  1  0
  5  8  1  0
  1  2  1  0
  1  3  1  0
  1  4  1  0
  5  6  1  0
  5  7  1  0
  8  9  1  0
  8 10  1  0
  8 11  1  0
 12 16  1  0
 16 17  1  0
 12 13  1  0
 12 14  1  0
 12 15  1  0
 17 18  1  0
 17 19  1  0
 17 20  1  0
M  CHG  1   8   1
M  END
>  <PDB_ID>  (967) 
pdb3glc

>  <RESIDUE_NAME>  (967) 
LYS   MET

>  <FRAG_NAME>  (967) 
ETAM   MSM

>  <FRAG_ATOM_NUM>  (967) 
fragi: 11  fragj: 9

>  <atom.prop.CHAIN_ID>  (967) 
A A A A A A A A A A A Z Z Z Z Z Z Z Z Z

>  <atom.prop.IS_HEAVY_ATOM>  (967) 
1 0 0 0 1 0 0 1 0 0 0 1 0 0 0 1 1 0 0 0

>  <DIFUSE_FUNC_ATOM>  (967) 
n/a

>  <FINAL_SINGLE_POINT_ENERGY>  (967) 
0

>  <NONCOV_INTER_ENERGY_QM>  (967) 
0

>  <FF_Energy>  (967) 
-4.84

>  <QM_Energy>  (967) 
-12.99

>  <source>  (967) 
ETAM_MSM

>  <Index>  (967) 
5906

$$$$
ETAM-pdb4d5r-B-LYS-103:MSM-pdb4d5r-B-MET-99
     RDKit          3D

 20 18  0  0  0  0  0  0  0  0999 V2000
    1.2222    0.9076    0.0000 C   0  0  0  0  0  0  0  0  0  0  0  0
    1.1043    1.5950    0.7172 H   0  0  0  0  0  0  0  0  0  0  0  0
    1.2779    1.3605   -0.8896 H   0  0  0  0  0  0  0  0  0  0  0  0
    2.1489    0.3626    0.1800 H   0  0  0  0  0  0  0  0  0  0  0  0
    0.0000    0.0000    0.0000 C   0  0  0  0  0  0  0  0  0  0  0  0
    0.0090   -0.5580   -0.8165 H   0  0  0  0  0  0  0  0  0  0  0  0
    0.0090   -0.5576    0.8164 H   0  0  0  0  0  0  0  0  0  0  0  0
   -1.2222    0.8575    0.0000 N   0  0  0  0  0  4  0  0  0  0  0  0
   -1.1490    1.5349   -0.7305 H   0  0  0  0  0  0  0  0  0  0  0  0
   -2.0266    0.2844   -0.1514 H   0  0  0  0  0  0  0  0  0  0  0  0
   -1.2997    1.3198    0.8820 H   0  0  0  0  0  0  0  0  0  0  0  0
   -0.3029   -0.2803    3.9504 C   0  0  0  0  0  0  0  0  0  0  0  0
    0.2621    0.3477    3.3611 H   0  0  0  0  0  0  0  0  0  0  0  0
    0.0094   -1.2296    3.7007 H   0  0  0  0  0  0  0  0  0  0  0  0
   -0.0283   -0.0998    4.9897 H   0  0  0  0  0  0  0  0  0  0  0  0
   -2.0923   -0.0756    3.5679 S   0  0  0  0  0  0  0  0  0  0  0  0
   -2.4502    1.5104    4.3200 C   0  0  0  0  0  0  0  0  0  0  0  0
   -1.7000    2.1468    4.1344 H   0  0  0  0  0  0  0  0  0  0  0  0
   -3.2988    1.8792    3.9388 H   0  0  0  0  0  0  0  0  0  0  0  0
   -2.5526    1.3972    5.3091 H   0  0  0  0  0  0  0  0  0  0  0  0
  1  5  1  0
  5  8  1  0
  1  2  1  0
  1  3  1  0
  1  4  1  0
  5  6  1  0
  5  7  1  0
  8  9  1  0
  8 10  1  0
  8 11  1  0
 12 16  1  0
 16 17  1  0
 12 13  1  0
 12 14  1  0
 12 15  1  0
 17 18  1  0
 17 19  1  0
 17 20  1  0
M  CHG  1   8   1
M  END
>  <PDB_ID>  (968) 
pdb4d5r

>  <RESIDUE_NAME>  (968) 
LYS   MET

>  <FRAG_NAME>  (968) 
ETAM   MSM

>  <FRAG_ATOM_NUM>  (968) 
fragi: 11  fragj: 9

>  <atom.prop.CHAIN_ID>  (968) 
A A A A A A A A A A A Z Z Z Z Z Z Z Z Z

>  <atom.prop.IS_HEAVY_ATOM>  (968) 
1 0 0 0 1 0 0 1 0 0 0 1 0 0 0 1 1 0 0 0

>  <DIFUSE_FUNC_ATOM>  (968) 
n/a

>  <FINAL_SINGLE_POINT_ENERGY>  (968) 
0

>  <NONCOV_INTER_ENERGY_QM>  (968) 
0

>  <FF_Energy>  (968) 
-4.13

>  <QM_Energy>  (968) 
-10.45

>  <source>  (968) 
ETAM_MSM

>  <Index>  (968) 
5921

$$$$
ETAM-pdb4d7u-A-LYS-109:MSM-pdb4d7u-A-MET-88
     RDKit          3D

 20 18  0  0  0  0  0  0  0  0999 V2000
    1.2416    0.8749    0.0000 C   0  0  0  0  0  0  0  0  0  0  0  0
    1.2265    1.4491    0.8161 H   0  0  0  0  0  0  0  0  0  0  0  0
    1.2277    1.4467   -0.8171 H   0  0  0  0  0  0  0  0  0  0  0  0
    2.1593    0.2868    0.0025 H   0  0  0  0  0  0  0  0  0  0  0  0
    0.0000    0.0000    0.0000 C   0  0  0  0  0  0  0  0  0  0  0  0
    0.0092   -0.5794   -0.8169 H   0  0  0  0  0  0  0  0  0  0  0  0
    0.0090   -0.5799    0.8163 H   0  0  0  0  0  0  0  0  0  0  0  0
   -1.2416    0.8242   -0.0000 N   0  0  0  0  0  4  0  0  0  0  0  0
   -1.1402    1.5752   -0.6515 H   0  0  0  0  0  0  0  0  0  0  0  0
   -2.0176    0.2530   -0.2652 H   0  0  0  0  0  0  0  0  0  0  0  0
   -1.3938    1.1927    0.9161 H   0  0  0  0  0  0  0  0  0  0  0  0
    0.0659    0.2187   -4.4387 C   0  0  0  0  0  0  0  0  0  0  0  0
    0.4622    1.0161   -3.9536 H   0  0  0  0  0  0  0  0  0  0  0  0
   -0.3240    0.5604   -5.3097 H   0  0  0  0  0  0  0  0  0  0  0  0
    0.8613   -0.4930   -4.6599 H   0  0  0  0  0  0  0  0  0  0  0  0
   -1.2031   -0.5725   -3.4377 S   0  0  0  0  0  0  0  0  0  0  0  0
   -2.1510   -1.3537   -4.7285 C   0  0  0  0  0  0  0  0  0  0  0  0
   -2.3106   -2.3166   -4.4988 H   0  0  0  0  0  0  0  0  0  0  0  0
   -3.0345   -0.8899   -4.8310 H   0  0  0  0  0  0  0  0  0  0  0  0
   -1.6513   -1.3021   -5.5963 H   0  0  0  0  0  0  0  0  0  0  0  0
  1  5  1  0
  5  8  1  0
  1  2  1  0
  1  3  1  0
  1  4  1  0
  5  6  1  0
  5  7  1  0
  8  9  1  0
  8 10  1  0
  8 11  1  0
 12 16  1  0
 16 17  1  0
 12 13  1  0
 12 14  1  0
 12 15  1  0
 17 18  1  0
 17 19  1  0
 17 20  1  0
M  CHG  1   8   1
M  END
>  <PDB_ID>  (969) 
pdb4d7u

>  <RESIDUE_NAME>  (969) 
LYS   MET

>  <FRAG_NAME>  (969) 
ETAM   MSM

>  <FRAG_ATOM_NUM>  (969) 
fragi: 11  fragj: 9

>  <atom.prop.CHAIN_ID>  (969) 
A A A A A A A A A A A Z Z Z Z Z Z Z Z Z

>  <atom.prop.IS_HEAVY_ATOM>  (969) 
1 0 0 0 1 0 0 1 0 0 0 1 0 0 0 1 1 0 0 0

>  <DIFUSE_FUNC_ATOM>  (969) 
n/a

>  <FINAL_SINGLE_POINT_ENERGY>  (969) 
0

>  <NONCOV_INTER_ENERGY_QM>  (969) 
0

>  <FF_Energy>  (969) 
-5.11

>  <QM_Energy>  (969) 
-11.37

>  <source>  (969) 
ETAM_MSM

>  <Index>  (969) 
5922

$$$$
ETAM-pdb4dat-A-LYS-9:MSM-pdb4dat-A-MET-1
     RDKit          3D

 20 18  0  0  0  0  0  0  0  0999 V2000
    1.2328    0.8879    0.0000 C   0  0  0  0  0  0  0  0  0  0  0  0
    1.2350    1.4245    0.8240 H   0  0  0  0  0  0  0  0  0  0  0  0
    1.2205    1.4444   -0.8094 H   0  0  0  0  0  0  0  0  0  0  0  0
    2.1157    0.2488   -0.0151 H   0  0  0  0  0  0  0  0  0  0  0  0
    0.0000    0.0000    0.0000 C   0  0  0  0  0  0  0  0  0  0  0  0
    0.0277   -0.5863   -0.8162 H   0  0  0  0  0  0  0  0  0  0  0  0
    0.0276   -0.5861    0.8161 H   0  0  0  0  0  0  0  0  0  0  0  0
   -1.2328    0.7906   -0.0000 N   0  0  0  0  0  4  0  0  0  0  0  0
   -1.5399    0.9472   -0.9420 H   0  0  0  0  0  0  0  0  0  0  0  0
   -1.9532    0.3036    0.5005 H   0  0  0  0  0  0  0  0  0  0  0  0
   -1.0724    1.6776    0.4422 H   0  0  0  0  0  0  0  0  0  0  0  0
   -1.4536    2.6186    4.0991 C   0  0  0  0  0  0  0  0  0  0  0  0
   -1.1968    1.9227    4.8584 H   0  0  0  0  0  0  0  0  0  0  0  0
   -2.3985    2.2376    3.7986 H   0  0  0  0  0  0  0  0  0  0  0  0
   -1.6461    3.5669    4.6008 H   0  0  0  0  0  0  0  0  0  0  0  0
   -0.2971    2.5774    2.7746 S   0  0  0  0  0  0  0  0  0  0  0  0
   -0.8694    3.8706    1.7229 C   0  0  0  0  0  0  0  0  0  0  0  0
   -0.8864    3.5616    0.7661 H   0  0  0  0  0  0  0  0  0  0  0  0
   -1.7999    4.1502    1.9852 H   0  0  0  0  0  0  0  0  0  0  0  0
   -0.2639    4.6711    1.7908 H   0  0  0  0  0  0  0  0  0  0  0  0
  1  5  1  0
  5  8  1  0
  1  2  1  0
  1  3  1  0
  1  4  1  0
  5  6  1  0
  5  7  1  0
  8  9  1  0
  8 10  1  0
  8 11  1  0
 12 16  1  0
 16 17  1  0
 12 13  1  0
 12 14  1  0
 12 15  1  0
 17 18  1  0
 17 19  1  0
 17 20  1  0
M  CHG  1   8   1
M  END
>  <PDB_ID>  (970) 
pdb4dat

>  <RESIDUE_NAME>  (970) 
LYS   MET

>  <FRAG_NAME>  (970) 
ETAM   MSM

>  <FRAG_ATOM_NUM>  (970) 
fragi: 11  fragj: 9

>  <atom.prop.CHAIN_ID>  (970) 
A A A A A A A A A A A Z Z Z Z Z Z Z Z Z

>  <atom.prop.IS_HEAVY_ATOM>  (970) 
1 0 0 0 1 0 0 1 0 0 0 1 0 0 0 1 1 0 0 0

>  <DIFUSE_FUNC_ATOM>  (970) 
n/a

>  <FINAL_SINGLE_POINT_ENERGY>  (970) 
0

>  <NONCOV_INTER_ENERGY_QM>  (970) 
0

>  <FF_Energy>  (970) 
-3.87

>  <QM_Energy>  (970) 
-10.84

>  <source>  (970) 
ETAM_MSM

>  <Index>  (970) 
5931

$$$$
ETAM-pdb4dck-B-LYS-76:MSM-pdb4dck-B-MET-52
     RDKit          3D

 20 18  0  0  0  0  0  0  0  0999 V2000
    1.2672    0.8632    0.0000 C   0  0  0  0  0  0  0  0  0  0  0  0
    1.2362    1.4661   -0.7935 H   0  0  0  0  0  0  0  0  0  0  0  0
    2.0581    0.2590   -0.0617 H   0  0  0  0  0  0  0  0  0  0  0  0
    1.3583    1.4720    0.8995 H   0  0  0  0  0  0  0  0  0  0  0  0
    0.0000    0.0000    0.0000 C   0  0  0  0  0  0  0  0  0  0  0  0
    0.0130   -0.5911   -0.8159 H   0  0  0  0  0  0  0  0  0  0  0  0
    0.0121   -0.5910    0.8163 H   0  0  0  0  0  0  0  0  0  0  0  0
   -1.2672    0.8020   -0.0000 N   0  0  0  0  0  4  0  0  0  0  0  0
   -1.8145    0.5464   -0.7941 H   0  0  0  0  0  0  0  0  0  0  0  0
   -1.7748    0.6099    0.8380 H   0  0  0  0  0  0  0  0  0  0  0  0
   -1.0384    1.7726   -0.0434 H   0  0  0  0  0  0  0  0  0  0  0  0
   -1.0336    4.8874   -2.4793 C   0  0  0  0  0  0  0  0  0  0  0  0
   -0.3810    5.0595   -1.7069 H   0  0  0  0  0  0  0  0  0  0  0  0
   -1.9372    5.2551   -2.1610 H   0  0  0  0  0  0  0  0  0  0  0  0
   -0.7080    5.4678   -3.3425 H   0  0  0  0  0  0  0  0  0  0  0  0
   -1.1518    3.1231   -2.8325 S   0  0  0  0  0  0  0  0  0  0  0  0
    0.3948    2.8449   -3.6918 C   0  0  0  0  0  0  0  0  0  0  0  0
    0.2576    2.1717   -4.4207 H   0  0  0  0  0  0  0  0  0  0  0  0
    0.7163    3.7045   -4.0908 H   0  0  0  0  0  0  0  0  0  0  0  0
    1.0798    2.5016   -3.0481 H   0  0  0  0  0  0  0  0  0  0  0  0
  1  5  1  0
  5  8  1  0
  1  2  1  0
  1  3  1  0
  1  4  1  0
  5  6  1  0
  5  7  1  0
  8  9  1  0
  8 10  1  0
  8 11  1  0
 12 16  1  0
 16 17  1  0
 12 13  1  0
 12 14  1  0
 12 15  1  0
 17 18  1  0
 17 19  1  0
 17 20  1  0
M  CHG  1   8   1
M  END
>  <PDB_ID>  (971) 
pdb4dck

>  <RESIDUE_NAME>  (971) 
LYS   MET

>  <FRAG_NAME>  (971) 
ETAM   MSM

>  <FRAG_ATOM_NUM>  (971) 
fragi: 11  fragj: 9

>  <atom.prop.CHAIN_ID>  (971) 
A A A A A A A A A A A Z Z Z Z Z Z Z Z Z

>  <atom.prop.IS_HEAVY_ATOM>  (971) 
1 0 0 0 1 0 0 1 0 0 0 1 0 0 0 1 1 0 0 0

>  <DIFUSE_FUNC_ATOM>  (971) 
n/a

>  <FINAL_SINGLE_POINT_ENERGY>  (971) 
0

>  <NONCOV_INTER_ENERGY_QM>  (971) 
0

>  <FF_Energy>  (971) 
-5.07

>  <QM_Energy>  (971) 
-11.99

>  <source>  (971) 
ETAM_MSM

>  <Index>  (971) 
5936

$$$$
ETAM-pdb3gue-A-LYS-95:MSM-pdb3gue-A-MET-89
     RDKit          3D

 20 18  0  0  0  0  0  0  0  0999 V2000
    1.2605    0.8665   -0.0000 C   0  0  0  0  0  0  0  0  0  0  0  0
    1.1082    1.6395    0.6009 H   0  0  0  0  0  0  0  0  0  0  0  0
    1.4326    1.1662   -0.9281 H   0  0  0  0  0  0  0  0  0  0  0  0
    2.1182    0.2977    0.3590 H   0  0  0  0  0  0  0  0  0  0  0  0
    0.0000    0.0000    0.0000 C   0  0  0  0  0  0  0  0  0  0  0  0
    0.0115   -0.5866   -0.8163 H   0  0  0  0  0  0  0  0  0  0  0  0
    0.0109   -0.5871    0.8164 H   0  0  0  0  0  0  0  0  0  0  0  0
   -1.2605    0.8103   -0.0000 N   0  0  0  0  0  4  0  0  0  0  0  0
   -2.0236    0.2278   -0.2736 H   0  0  0  0  0  0  0  0  0  0  0  0
   -1.4190    1.1671    0.9186 H   0  0  0  0  0  0  0  0  0  0  0  0
   -1.1628    1.5660   -0.6453 H   0  0  0  0  0  0  0  0  0  0  0  0
   -1.2486   -3.3846   -2.9434 C   0  0  0  0  0  0  0  0  0  0  0  0
   -1.1938   -3.7300   -3.9026 H   0  0  0  0  0  0  0  0  0  0  0  0
   -2.2359   -3.1985   -2.7643 H   0  0  0  0  0  0  0  0  0  0  0  0
   -0.9131   -4.1723   -2.2689 H   0  0  0  0  0  0  0  0  0  0  0  0
   -0.2691   -1.9089   -2.7361 S   0  0  0  0  0  0  0  0  0  0  0  0
    1.3252   -2.4653   -3.3367 C   0  0  0  0  0  0  0  0  0  0  0  0
    1.2383   -3.3885   -3.7132 H   0  0  0  0  0  0  0  0  0  0  0  0
    1.6488   -1.8442   -4.0519 H   0  0  0  0  0  0  0  0  0  0  0  0
    1.9830   -2.4754   -2.5816 H   0  0  0  0  0  0  0  0  0  0  0  0
  1  5  1  0
  5  8  1  0
  1  2  1  0
  1  3  1  0
  1  4  1  0
  5  6  1  0
  5  7  1  0
  8  9  1  0
  8 10  1  0
  8 11  1  0
 12 16  1  0
 16 17  1  0
 12 13  1  0
 12 14  1  0
 12 15  1  0
 17 18  1  0
 17 19  1  0
 17 20  1  0
M  CHG  1   8   1
M  END
>  <PDB_ID>  (972) 
pdb3gue

>  <RESIDUE_NAME>  (972) 
LYS   MET

>  <FRAG_NAME>  (972) 
ETAM   MSM

>  <FRAG_ATOM_NUM>  (972) 
fragi: 11  fragj: 9

>  <atom.prop.CHAIN_ID>  (972) 
A A A A A A A A A A A Z Z Z Z Z Z Z Z Z

>  <atom.prop.IS_HEAVY_ATOM>  (972) 
1 0 0 0 1 0 0 1 0 0 0 1 0 0 0 1 1 0 0 0

>  <DIFUSE_FUNC_ATOM>  (972) 
n/a

>  <FINAL_SINGLE_POINT_ENERGY>  (972) 
0

>  <NONCOV_INTER_ENERGY_QM>  (972) 
0

>  <FF_Energy>  (972) 
1.79

>  <QM_Energy>  (972) 
-7.85

>  <source>  (972) 
ETAM_MSM

>  <Index>  (972) 
5948

$$$$
ETAM-pdb4dlo-A-LYS-840:MSM-pdb4dlo-B-MET-722
     RDKit          3D

 20 18  0  0  0  0  0  0  0  0999 V2000
    1.2570    0.8698    0.0000 C   0  0  0  0  0  0  0  0  0  0  0  0
    1.1554    1.5658    0.6999 H   0  0  0  0  0  0  0  0  0  0  0  0
    1.3508    1.2836   -0.8966 H   0  0  0  0  0  0  0  0  0  0  0  0
    2.1441    0.2738    0.2143 H   0  0  0  0  0  0  0  0  0  0  0  0
    0.0000    0.0000    0.0000 C   0  0  0  0  0  0  0  0  0  0  0  0
    0.0145   -0.5876   -0.8164 H   0  0  0  0  0  0  0  0  0  0  0  0
    0.0142   -0.5871    0.8163 H   0  0  0  0  0  0  0  0  0  0  0  0
   -1.2570    0.8058    0.0000 N   0  0  0  0  0  4  0  0  0  0  0  0
   -1.0617    1.7200   -0.3507 H   0  0  0  0  0  0  0  0  0  0  0  0
   -1.9345    0.3593   -0.5825 H   0  0  0  0  0  0  0  0  0  0  0  0
   -1.6064    0.8709    0.9337 H   0  0  0  0  0  0  0  0  0  0  0  0
    0.3813    4.5314   -4.4832 C   0  0  0  0  0  0  0  0  0  0  0  0
    0.8403    4.1042   -5.2843 H   0  0  0  0  0  0  0  0  0  0  0  0
    0.2142    5.5048   -4.7254 H   0  0  0  0  0  0  0  0  0  0  0  0
   -0.5776    4.0383   -4.3235 H   0  0  0  0  0  0  0  0  0  0  0  0
    1.4048    4.4037   -3.0152 S   0  0  0  0  0  0  0  0  0  0  0  0
    1.2819    2.6428   -2.7581 C   0  0  0  0  0  0  0  0  0  0  0  0
    0.3593    2.3285   -2.9924 H   0  0  0  0  0  0  0  0  0  0  0  0
    1.9480    2.1683   -3.3368 H   0  0  0  0  0  0  0  0  0  0  0  0
    1.4683    2.4256   -1.7972 H   0  0  0  0  0  0  0  0  0  0  0  0
  1  5  1  0
  5  8  1  0
  1  2  1  0
  1  3  1  0
  1  4  1  0
  5  6  1  0
  5  7  1  0
  8  9  1  0
  8 10  1  0
  8 11  1  0
 12 16  1  0
 16 17  1  0
 12 13  1  0
 12 14  1  0
 12 15  1  0
 17 18  1  0
 17 19  1  0
 17 20  1  0
M  CHG  1   8   1
M  END
>  <PDB_ID>  (973) 
pdb4dlo

>  <RESIDUE_NAME>  (973) 
LYS   MET

>  <FRAG_NAME>  (973) 
ETAM   MSM

>  <FRAG_ATOM_NUM>  (973) 
fragi: 11  fragj: 9

>  <atom.prop.CHAIN_ID>  (973) 
A A A A A A A A A A A Z Z Z Z Z Z Z Z Z

>  <atom.prop.IS_HEAVY_ATOM>  (973) 
1 0 0 0 1 0 0 1 0 0 0 1 0 0 0 1 1 0 0 0

>  <DIFUSE_FUNC_ATOM>  (973) 
n/a

>  <FINAL_SINGLE_POINT_ENERGY>  (973) 
0

>  <NONCOV_INTER_ENERGY_QM>  (973) 
0

>  <FF_Energy>  (973) 
39.66

>  <QM_Energy>  (973) 
5.65

>  <source>  (973) 
ETAM_MSM

>  <Index>  (973) 
5969

$$$$
ETAM-pdb4dml-D-LYS-174:MSM-pdb4dml-B-MET-150
     RDKit          3D

 20 18  0  0  0  0  0  0  0  0999 V2000
    1.2513    0.8535   -0.0000 C   0  0  0  0  0  0  0  0  0  0  0  0
    1.3120    1.3416    0.8586 H   0  0  0  0  0  0  0  0  0  0  0  0
    1.2196    1.4777   -0.7668 H   0  0  0  0  0  0  0  0  0  0  0  0
    2.1403    0.2312   -0.1023 H   0  0  0  0  0  0  0  0  0  0  0  0
    0.0000    0.0000    0.0000 C   0  0  0  0  0  0  0  0  0  0  0  0
   -0.0005   -0.5858   -0.8161 H   0  0  0  0  0  0  0  0  0  0  0  0
   -0.0004   -0.5864    0.8164 H   0  0  0  0  0  0  0  0  0  0  0  0
   -1.2513    0.8266   -0.0000 N   0  0  0  0  0  4  0  0  0  0  0  0
   -1.3551    1.2608    0.8924 H   0  0  0  0  0  0  0  0  0  0  0  0
   -1.1816    1.5240   -0.7106 H   0  0  0  0  0  0  0  0  0  0  0  0
   -2.0332    0.2346   -0.1815 H   0  0  0  0  0  0  0  0  0  0  0  0
   -4.2844    1.6839    2.2043 C   0  0  0  0  0  0  0  0  0  0  0  0
   -4.8922    2.3068    2.8004 H   0  0  0  0  0  0  0  0  0  0  0  0
   -3.3896    2.2406    2.1674 H   0  0  0  0  0  0  0  0  0  0  0  0
   -4.0801    0.7842    2.7847 H   0  0  0  0  0  0  0  0  0  0  0  0
   -4.9907    1.5171    0.5435 S   0  0  0  0  0  0  0  0  0  0  0  0
   -5.0040    3.3005    0.2038 C   0  0  0  0  0  0  0  0  0  0  0  0
   -4.4691    3.7670    0.9042 H   0  0  0  0  0  0  0  0  0  0  0  0
   -4.6033    3.4620   -0.6956 H   0  0  0  0  0  0  0  0  0  0  0  0
   -5.9458    3.6259    0.2208 H   0  0  0  0  0  0  0  0  0  0  0  0
  1  5  1  0
  5  8  1  0
  1  2  1  0
  1  3  1  0
  1  4  1  0
  5  6  1  0
  5  7  1  0
  8  9  1  0
  8 10  1  0
  8 11  1  0
 12 16  1  0
 16 17  1  0
 12 13  1  0
 12 14  1  0
 12 15  1  0
 17 18  1  0
 17 19  1  0
 17 20  1  0
M  CHG  1   8   1
M  END
>  <PDB_ID>  (974) 
pdb4dml

>  <RESIDUE_NAME>  (974) 
LYS   MET

>  <FRAG_NAME>  (974) 
ETAM   MSM

>  <FRAG_ATOM_NUM>  (974) 
fragi: 11  fragj: 9

>  <atom.prop.CHAIN_ID>  (974) 
A A A A A A A A A A A Z Z Z Z Z Z Z Z Z

>  <atom.prop.IS_HEAVY_ATOM>  (974) 
1 0 0 0 1 0 0 1 0 0 0 1 0 0 0 1 1 0 0 0

>  <DIFUSE_FUNC_ATOM>  (974) 
n/a

>  <FINAL_SINGLE_POINT_ENERGY>  (974) 
0

>  <NONCOV_INTER_ENERGY_QM>  (974) 
0

>  <FF_Energy>  (974) 
-2.88

>  <QM_Energy>  (974) 
-8.21

>  <source>  (974) 
ETAM_MSM

>  <Index>  (974) 
5972

$$$$
ETAM-pdb3glc-J-LYS-203:MSM-pdb3glc-J-MET-86
     RDKit          3D

 20 18  0  0  0  0  0  0  0  0999 V2000
    1.2535    0.8422    0.0000 C   0  0  0  0  0  0  0  0  0  0  0  0
    1.2929    1.3558    0.8496 H   0  0  0  0  0  0  0  0  0  0  0  0
    1.2247    1.4571   -0.7796 H   0  0  0  0  0  0  0  0  0  0  0  0
    2.1387    0.2106   -0.0753 H   0  0  0  0  0  0  0  0  0  0  0  0
    0.0000    0.0000    0.0000 C   0  0  0  0  0  0  0  0  0  0  0  0
    0.0029   -0.5961   -0.8160 H   0  0  0  0  0  0  0  0  0  0  0  0
    0.0030   -0.5969    0.8163 H   0  0  0  0  0  0  0  0  0  0  0  0
   -1.2535    0.8070   -0.0000 N   0  0  0  0  0  4  0  0  0  0  0  0
   -1.9997    0.2578    0.3748 H   0  0  0  0  0  0  0  0  0  0  0  0
   -1.1211    1.6226    0.5621 H   0  0  0  0  0  0  0  0  0  0  0  0
   -1.4728    1.0764   -0.9362 H   0  0  0  0  0  0  0  0  0  0  0  0
   -5.4154   -0.9957    2.1128 C   0  0  0  0  0  0  0  0  0  0  0  0
   -5.6974   -0.1725    1.5502 H   0  0  0  0  0  0  0  0  0  0  0  0
   -6.0099   -0.9355    2.9597 H   0  0  0  0  0  0  0  0  0  0  0  0
   -5.7190   -1.8866    1.5630 H   0  0  0  0  0  0  0  0  0  0  0  0
   -3.6618   -0.9075    2.5489 S   0  0  0  0  0  0  0  0  0  0  0  0
   -3.6665    0.6964    3.3374 C   0  0  0  0  0  0  0  0  0  0  0  0
   -3.7621    1.4132    2.6437 H   0  0  0  0  0  0  0  0  0  0  0  0
   -4.4327    0.7539    3.9800 H   0  0  0  0  0  0  0  0  0  0  0  0
   -2.8075    0.8312    3.8351 H   0  0  0  0  0  0  0  0  0  0  0  0
  1  5  1  0
  5  8  1  0
  1  2  1  0
  1  3  1  0
  1  4  1  0
  5  6  1  0
  5  7  1  0
  8  9  1  0
  8 10  1  0
  8 11  1  0
 12 16  1  0
 16 17  1  0
 12 13  1  0
 12 14  1  0
 12 15  1  0
 17 18  1  0
 17 19  1  0
 17 20  1  0
M  CHG  1   8   1
M  END
>  <PDB_ID>  (975) 
pdb3glc

>  <RESIDUE_NAME>  (975) 
LYS   MET

>  <FRAG_NAME>  (975) 
ETAM   MSM

>  <FRAG_ATOM_NUM>  (975) 
fragi: 11  fragj: 9

>  <atom.prop.CHAIN_ID>  (975) 
A A A A A A A A A A A Z Z Z Z Z Z Z Z Z

>  <atom.prop.IS_HEAVY_ATOM>  (975) 
1 0 0 0 1 0 0 1 0 0 0 1 0 0 0 1 1 0 0 0

>  <DIFUSE_FUNC_ATOM>  (975) 
n/a

>  <FINAL_SINGLE_POINT_ENERGY>  (975) 
0

>  <NONCOV_INTER_ENERGY_QM>  (975) 
0

>  <FF_Energy>  (975) 
-3.84

>  <QM_Energy>  (975) 
-10.81

>  <source>  (975) 
ETAM_MSM

>  <Index>  (975) 
5973

$$$$
ETAM-pdb3glc-K-LYS-203:MSM-pdb3glc-K-MET-86
     RDKit          3D

 20 18  0  0  0  0  0  0  0  0999 V2000
    1.2427    0.8457   -0.0000 C   0  0  0  0  0  0  0  0  0  0  0  0
    1.2743    1.3701    0.8448 H   0  0  0  0  0  0  0  0  0  0  0  0
    1.2155    1.4559   -0.7853 H   0  0  0  0  0  0  0  0  0  0  0  0
    2.1324    0.2193   -0.0645 H   0  0  0  0  0  0  0  0  0  0  0  0
    0.0000    0.0000    0.0000 C   0  0  0  0  0  0  0  0  0  0  0  0
   -0.0010   -0.5902   -0.8162 H   0  0  0  0  0  0  0  0  0  0  0  0
   -0.0015   -0.5910    0.8168 H   0  0  0  0  0  0  0  0  0  0  0  0
   -1.2427    0.8200    0.0000 N   0  0  0  0  0  4  0  0  0  0  0  0
   -1.8602    0.4853   -0.7109 H   0  0  0  0  0  0  0  0  0  0  0  0
   -1.6872    0.7470    0.8921 H   0  0  0  0  0  0  0  0  0  0  0  0
   -1.0096    1.7755   -0.1815 H   0  0  0  0  0  0  0  0  0  0  0  0
   -5.3772   -0.6714    2.5785 C   0  0  0  0  0  0  0  0  0  0  0  0
   -5.7979    0.1106    2.0738 H   0  0  0  0  0  0  0  0  0  0  0  0
   -5.7722   -0.6470    3.5199 H   0  0  0  0  0  0  0  0  0  0  0  0
   -5.6736   -1.6024    2.0952 H   0  0  0  0  0  0  0  0  0  0  0  0
   -3.6247   -0.5451    2.6132 S   0  0  0  0  0  0  0  0  0  0  0  0
   -3.4364    1.0330    3.4507 C   0  0  0  0  0  0  0  0  0  0  0  0
   -2.8612    0.9135    4.2606 H   0  0  0  0  0  0  0  0  0  0  0  0
   -3.0075    1.6904    2.8308 H   0  0  0  0  0  0  0  0  0  0  0  0
   -4.3355    1.3733    3.7262 H   0  0  0  0  0  0  0  0  0  0  0  0
  1  5  1  0
  5  8  1  0
  1  2  1  0
  1  3  1  0
  1  4  1  0
  5  6  1  0
  5  7  1  0
  8  9  1  0
  8 10  1  0
  8 11  1  0
 12 16  1  0
 16 17  1  0
 12 13  1  0
 12 14  1  0
 12 15  1  0
 17 18  1  0
 17 19  1  0
 17 20  1  0
M  CHG  1   8   1
M  END
>  <PDB_ID>  (976) 
pdb3glc

>  <RESIDUE_NAME>  (976) 
LYS   MET

>  <FRAG_NAME>  (976) 
ETAM   MSM

>  <FRAG_ATOM_NUM>  (976) 
fragi: 11  fragj: 9

>  <atom.prop.CHAIN_ID>  (976) 
A A A A A A A A A A A Z Z Z Z Z Z Z Z Z

>  <atom.prop.IS_HEAVY_ATOM>  (976) 
1 0 0 0 1 0 0 1 0 0 0 1 0 0 0 1 1 0 0 0

>  <DIFUSE_FUNC_ATOM>  (976) 
n/a

>  <FINAL_SINGLE_POINT_ENERGY>  (976) 
0

>  <NONCOV_INTER_ENERGY_QM>  (976) 
0

>  <FF_Energy>  (976) 
-4.07

>  <QM_Energy>  (976) 
-10.17

>  <source>  (976) 
ETAM_MSM

>  <Index>  (976) 
5980

$$$$
ETAM-pdb3glc-M-LYS-203:MSM-pdb3glc-M-MET-86
     RDKit          3D

 20 18  0  0  0  0  0  0  0  0999 V2000
    1.2419    0.8275   -0.0000 C   0  0  0  0  0  0  0  0  0  0  0  0
    1.3352    1.2908    0.8738 H   0  0  0  0  0  0  0  0  0  0  0  0
    1.2040    1.4868   -0.7425 H   0  0  0  0  0  0  0  0  0  0  0  0
    2.1234    0.2034   -0.1467 H   0  0  0  0  0  0  0  0  0  0  0  0
    0.0000    0.0000    0.0000 C   0  0  0  0  0  0  0  0  0  0  0  0
   -0.0169   -0.5896   -0.8157 H   0  0  0  0  0  0  0  0  0  0  0  0
   -0.0175   -0.5893    0.8164 H   0  0  0  0  0  0  0  0  0  0  0  0
   -1.2419    0.8422   -0.0000 N   0  0  0  0  0  4  0  0  0  0  0  0
   -1.6305    0.8496   -0.9192 H   0  0  0  0  0  0  0  0  0  0  0  0
   -1.8988    0.4538    0.6429 H   0  0  0  0  0  0  0  0  0  0  0  0
   -1.0056    1.7712    0.2757 H   0  0  0  0  0  0  0  0  0  0  0  0
   -5.4383   -0.9682    2.3253 C   0  0  0  0  0  0  0  0  0  0  0  0
   -5.7924   -0.0841    1.9431 H   0  0  0  0  0  0  0  0  0  0  0  0
   -5.8996   -1.0758    3.2358 H   0  0  0  0  0  0  0  0  0  0  0  0
   -5.7738   -1.7771    1.6763 H   0  0  0  0  0  0  0  0  0  0  0  0
   -3.6746   -0.9420    2.4912 S   0  0  0  0  0  0  0  0  0  0  0  0
   -3.5272    0.6354    3.3500 C   0  0  0  0  0  0  0  0  0  0  0  0
   -3.3019    0.4693    4.3094 H   0  0  0  0  0  0  0  0  0  0  0  0
   -2.8043    1.1770    2.9233 H   0  0  0  0  0  0  0  0  0  0  0  0
   -4.3950    1.1266    3.2900 H   0  0  0  0  0  0  0  0  0  0  0  0
  1  5  1  0
  5  8  1  0
  1  2  1  0
  1  3  1  0
  1  4  1  0
  5  6  1  0
  5  7  1  0
  8  9  1  0
  8 10  1  0
  8 11  1  0
 12 16  1  0
 16 17  1  0
 12 13  1  0
 12 14  1  0
 12 15  1  0
 17 18  1  0
 17 19  1  0
 17 20  1  0
M  CHG  1   8   1
M  END
>  <PDB_ID>  (977) 
pdb3glc

>  <RESIDUE_NAME>  (977) 
LYS   MET

>  <FRAG_NAME>  (977) 
ETAM   MSM

>  <FRAG_ATOM_NUM>  (977) 
fragi: 11  fragj: 9

>  <atom.prop.CHAIN_ID>  (977) 
A A A A A A A A A A A Z Z Z Z Z Z Z Z Z

>  <atom.prop.IS_HEAVY_ATOM>  (977) 
1 0 0 0 1 0 0 1 0 0 0 1 0 0 0 1 1 0 0 0

>  <DIFUSE_FUNC_ATOM>  (977) 
n/a

>  <FINAL_SINGLE_POINT_ENERGY>  (977) 
0

>  <NONCOV_INTER_ENERGY_QM>  (977) 
0

>  <FF_Energy>  (977) 
-3.68

>  <QM_Energy>  (977) 
-10.18

>  <source>  (977) 
ETAM_MSM

>  <Index>  (977) 
5985

$$$$
ETAM-pdb4dws-A-LYS-291:MSM-pdb4dws-A-MET-187
     RDKit          3D

 20 18  0  0  0  0  0  0  0  0999 V2000
    1.2363    0.8639    0.0000 C   0  0  0  0  0  0  0  0  0  0  0  0
    1.2087    1.4532    0.8168 H   0  0  0  0  0  0  0  0  0  0  0  0
    1.2081    1.4535   -0.8165 H   0  0  0  0  0  0  0  0  0  0  0  0
    2.1656    0.2942    0.0007 H   0  0  0  0  0  0  0  0  0  0  0  0
    0.0000    0.0000    0.0000 C   0  0  0  0  0  0  0  0  0  0  0  0
    0.0066   -0.5852   -0.8163 H   0  0  0  0  0  0  0  0  0  0  0  0
    0.0058   -0.5853    0.8166 H   0  0  0  0  0  0  0  0  0  0  0  0
   -1.2363    0.8205   -0.0000 N   0  0  0  0  0  4  0  0  0  0  0  0
   -0.9928    1.7905    0.0161 H   0  0  0  0  0  0  0  0  0  0  0  0
   -1.7672    0.6248   -0.8243 H   0  0  0  0  0  0  0  0  0  0  0  0
   -1.7832    0.6003    0.8079 H   0  0  0  0  0  0  0  0  0  0  0  0
   -1.4360    3.2843    2.3880 C   0  0  0  0  0  0  0  0  0  0  0  0
   -1.4509    4.0950    2.9808 H   0  0  0  0  0  0  0  0  0  0  0  0
   -2.3191    2.8116    2.4668 H   0  0  0  0  0  0  0  0  0  0  0  0
   -1.2756    3.5908    1.3544 H   0  0  0  0  0  0  0  0  0  0  0  0
   -0.0850    2.1855    2.8491 S   0  0  0  0  0  0  0  0  0  0  0  0
   -0.7783    1.6995    4.5088 C   0  0  0  0  0  0  0  0  0  0  0  0
   -1.1509    0.7865    4.4221 H   0  0  0  0  0  0  0  0  0  0  0  0
   -0.0355    1.7234    5.1626 H   0  0  0  0  0  0  0  0  0  0  0  0
   -1.4834    2.3534    4.7428 H   0  0  0  0  0  0  0  0  0  0  0  0
  1  5  1  0
  5  8  1  0
  1  2  1  0
  1  3  1  0
  1  4  1  0
  5  6  1  0
  5  7  1  0
  8  9  1  0
  8 10  1  0
  8 11  1  0
 12 16  1  0
 16 17  1  0
 12 13  1  0
 12 14  1  0
 12 15  1  0
 17 18  1  0
 17 19  1  0
 17 20  1  0
M  CHG  1   8   1
M  END
>  <PDB_ID>  (978) 
pdb4dws

>  <RESIDUE_NAME>  (978) 
LYS   MET

>  <FRAG_NAME>  (978) 
ETAM   MSM

>  <FRAG_ATOM_NUM>  (978) 
fragi: 11  fragj: 9

>  <atom.prop.CHAIN_ID>  (978) 
A A A A A A A A A A A Z Z Z Z Z Z Z Z Z

>  <atom.prop.IS_HEAVY_ATOM>  (978) 
1 0 0 0 1 0 0 1 0 0 0 1 0 0 0 1 1 0 0 0

>  <DIFUSE_FUNC_ATOM>  (978) 
n/a

>  <FINAL_SINGLE_POINT_ENERGY>  (978) 
0

>  <NONCOV_INTER_ENERGY_QM>  (978) 
0

>  <FF_Energy>  (978) 
-1.53

>  <QM_Energy>  (978) 
-9.76

>  <source>  (978) 
ETAM_MSM

>  <Index>  (978) 
5990

$$$$
ETAM-pdb4dws-B-LYS-291:MSM-pdb4dws-B-MET-187
     RDKit          3D

 20 18  0  0  0  0  0  0  0  0999 V2000
    1.2343    0.8773    0.0000 C   0  0  0  0  0  0  0  0  0  0  0  0
    1.2110    1.4579    0.8163 H   0  0  0  0  0  0  0  0  0  0  0  0
    1.2098    1.4578   -0.8168 H   0  0  0  0  0  0  0  0  0  0  0  0
    2.1613    0.3038    0.0002 H   0  0  0  0  0  0  0  0  0  0  0  0
    0.0000    0.0000    0.0000 C   0  0  0  0  0  0  0  0  0  0  0  0
    0.0106   -0.5791   -0.8156 H   0  0  0  0  0  0  0  0  0  0  0  0
    0.0105   -0.5791    0.8167 H   0  0  0  0  0  0  0  0  0  0  0  0
   -1.2343    0.8236    0.0000 N   0  0  0  0  0  4  0  0  0  0  0  0
   -1.1554    1.5430    0.6908 H   0  0  0  0  0  0  0  0  0  0  0  0
   -1.3582    1.2398   -0.9008 H   0  0  0  0  0  0  0  0  0  0  0  0
   -2.0224    0.2448    0.2114 H   0  0  0  0  0  0  0  0  0  0  0  0
   -1.3268    3.5856    2.5749 C   0  0  0  0  0  0  0  0  0  0  0  0
   -1.2788    4.4015    3.2140 H   0  0  0  0  0  0  0  0  0  0  0  0
   -2.2911    3.2257    2.7064 H   0  0  0  0  0  0  0  0  0  0  0  0
   -1.2167    3.9347    1.5482 H   0  0  0  0  0  0  0  0  0  0  0  0
   -0.1295    2.3474    3.0541 S   0  0  0  0  0  0  0  0  0  0  0  0
   -0.8769    1.8178    4.6279 C   0  0  0  0  0  0  0  0  0  0  0  0
   -1.5690    2.4830    4.8947 H   0  0  0  0  0  0  0  0  0  0  0  0
   -1.2935    0.9221    4.5003 H   0  0  0  0  0  0  0  0  0  0  0  0
   -0.1633    1.7678    5.3214 H   0  0  0  0  0  0  0  0  0  0  0  0
  1  5  1  0
  5  8  1  0
  1  2  1  0
  1  3  1  0
  1  4  1  0
  5  6  1  0
  5  7  1  0
  8  9  1  0
  8 10  1  0
  8 11  1  0
 12 16  1  0
 16 17  1  0
 12 13  1  0
 12 14  1  0
 12 15  1  0
 17 18  1  0
 17 19  1  0
 17 20  1  0
M  CHG  1   8   1
M  END
>  <PDB_ID>  (979) 
pdb4dws

>  <RESIDUE_NAME>  (979) 
LYS   MET

>  <FRAG_NAME>  (979) 
ETAM   MSM

>  <FRAG_ATOM_NUM>  (979) 
fragi: 11  fragj: 9

>  <atom.prop.CHAIN_ID>  (979) 
A A A A A A A A A A A Z Z Z Z Z Z Z Z Z

>  <atom.prop.IS_HEAVY_ATOM>  (979) 
1 0 0 0 1 0 0 1 0 0 0 1 0 0 0 1 1 0 0 0

>  <DIFUSE_FUNC_ATOM>  (979) 
n/a

>  <FINAL_SINGLE_POINT_ENERGY>  (979) 
0

>  <NONCOV_INTER_ENERGY_QM>  (979) 
0

>  <FF_Energy>  (979) 
-4.51

>  <QM_Energy>  (979) 
-12.49

>  <source>  (979) 
ETAM_MSM

>  <Index>  (979) 
5991

$$$$
ETAM-pdb4dxf-A-LYS-135:MSM-pdb4dxf-A-MET-183
     RDKit          3D

 20 18  0  0  0  0  0  0  0  0999 V2000
    1.2721    0.8565    0.0000 C   0  0  0  0  0  0  0  0  0  0  0  0
    1.2385    1.4589   -0.8018 H   0  0  0  0  0  0  0  0  0  0  0  0
    2.0585    0.2402   -0.0867 H   0  0  0  0  0  0  0  0  0  0  0  0
    1.3874    1.4620    0.8990 H   0  0  0  0  0  0  0  0  0  0  0  0
    0.0000    0.0000    0.0000 C   0  0  0  0  0  0  0  0  0  0  0  0
   -0.0310   -0.5570   -0.8169 H   0  0  0  0  0  0  0  0  0  0  0  0
   -0.0313   -0.5576    0.8169 H   0  0  0  0  0  0  0  0  0  0  0  0
   -1.2721    0.9085    0.0000 N   0  0  0  0  0  4  0  0  0  0  0  0
   -1.9984    0.3968    0.4320 H   0  0  0  0  0  0  0  0  0  0  0  0
   -1.0501    1.7254    0.5102 H   0  0  0  0  0  0  0  0  0  0  0  0
   -1.4855    1.1162   -0.9418 H   0  0  0  0  0  0  0  0  0  0  0  0
   -0.3285    5.2149    0.2412 C   0  0  0  0  0  0  0  0  0  0  0  0
    0.2392    4.7641    0.9972 H   0  0  0  0  0  0  0  0  0  0  0  0
   -0.3696    6.2126    0.5546 H   0  0  0  0  0  0  0  0  0  0  0  0
    0.3319    5.2276   -0.6258 H   0  0  0  0  0  0  0  0  0  0  0  0
   -1.7874    4.5131   -0.0479 S   0  0  0  0  0  0  0  0  0  0  0  0
   -2.6263    4.7681    1.5978 C   0  0  0  0  0  0  0  0  0  0  0  0
   -2.5692    3.9165    2.0980 H   0  0  0  0  0  0  0  0  0  0  0  0
   -2.1465    5.4941    2.0687 H   0  0  0  0  0  0  0  0  0  0  0  0
   -3.5676    5.0161    1.4184 H   0  0  0  0  0  0  0  0  0  0  0  0
  1  5  1  0
  5  8  1  0
  1  2  1  0
  1  3  1  0
  1  4  1  0
  5  6  1  0
  5  7  1  0
  8  9  1  0
  8 10  1  0
  8 11  1  0
 12 16  1  0
 16 17  1  0
 12 13  1  0
 12 14  1  0
 12 15  1  0
 17 18  1  0
 17 19  1  0
 17 20  1  0
M  CHG  1   8   1
M  END
>  <PDB_ID>  (980) 
pdb4dxf

>  <RESIDUE_NAME>  (980) 
LYS   MET

>  <FRAG_NAME>  (980) 
ETAM   MSM

>  <FRAG_ATOM_NUM>  (980) 
fragi: 11  fragj: 9

>  <atom.prop.CHAIN_ID>  (980) 
A A A A A A A A A A A Z Z Z Z Z Z Z Z Z

>  <atom.prop.IS_HEAVY_ATOM>  (980) 
1 0 0 0 1 0 0 1 0 0 0 1 0 0 0 1 1 0 0 0

>  <DIFUSE_FUNC_ATOM>  (980) 
n/a

>  <FINAL_SINGLE_POINT_ENERGY>  (980) 
0

>  <NONCOV_INTER_ENERGY_QM>  (980) 
0

>  <FF_Energy>  (980) 
-4.49

>  <QM_Energy>  (980) 
-11.27

>  <source>  (980) 
ETAM_MSM

>  <Index>  (980) 
5994

$$$$
ETAM-pdb4dxf-B-LYS-135:MSM-pdb4dxf-B-MET-183
     RDKit          3D

 20 18  0  0  0  0  0  0  0  0999 V2000
    1.2302    0.9238    0.0000 C   0  0  0  0  0  0  0  0  0  0  0  0
    1.1844    1.5340   -0.7825 H   0  0  0  0  0  0  0  0  0  0  0  0
    2.0565    0.3728   -0.0342 H   0  0  0  0  0  0  0  0  0  0  0  0
    1.3039    1.5525    0.8873 H   0  0  0  0  0  0  0  0  0  0  0  0
    0.0000    0.0000    0.0000 C   0  0  0  0  0  0  0  0  0  0  0  0
   -0.0298   -0.5138   -0.8159 H   0  0  0  0  0  0  0  0  0  0  0  0
   -0.0295   -0.5145    0.8169 H   0  0  0  0  0  0  0  0  0  0  0  0
   -1.2302    0.9711   -0.0000 N   0  0  0  0  0  4  0  0  0  0  0  0
   -1.9875    0.4828   -0.4030 H   0  0  0  0  0  0  0  0  0  0  0  0
   -1.4114    1.2131    0.9394 H   0  0  0  0  0  0  0  0  0  0  0  0
   -0.9787    1.7601   -0.5373 H   0  0  0  0  0  0  0  0  0  0  0  0
   -0.6922    5.3677    0.4322 C   0  0  0  0  0  0  0  0  0  0  0  0
   -0.1889    5.0636    1.2655 H   0  0  0  0  0  0  0  0  0  0  0  0
   -0.9054    6.3554    0.5702 H   0  0  0  0  0  0  0  0  0  0  0  0
    0.0178    5.3162   -0.3932 H   0  0  0  0  0  0  0  0  0  0  0  0
   -2.1080    4.4043    0.1011 S   0  0  0  0  0  0  0  0  0  0  0  0
   -2.9083    4.6645    1.7114 C   0  0  0  0  0  0  0  0  0  0  0  0
   -3.2411    5.6029    1.7588 H   0  0  0  0  0  0  0  0  0  0  0  0
   -3.6691    4.0272    1.8004 H   0  0  0  0  0  0  0  0  0  0  0  0
   -2.2404    4.5025    2.4337 H   0  0  0  0  0  0  0  0  0  0  0  0
  1  5  1  0
  5  8  1  0
  1  2  1  0
  1  3  1  0
  1  4  1  0
  5  6  1  0
  5  7  1  0
  8  9  1  0
  8 10  1  0
  8 11  1  0
 12 16  1  0
 16 17  1  0
 12 13  1  0
 12 14  1  0
 12 15  1  0
 17 18  1  0
 17 19  1  0
 17 20  1  0
M  CHG  1   8   1
M  END
>  <PDB_ID>  (981) 
pdb4dxf

>  <RESIDUE_NAME>  (981) 
LYS   MET

>  <FRAG_NAME>  (981) 
ETAM   MSM

>  <FRAG_ATOM_NUM>  (981) 
fragi: 11  fragj: 9

>  <atom.prop.CHAIN_ID>  (981) 
A A A A A A A A A A A Z Z Z Z Z Z Z Z Z

>  <atom.prop.IS_HEAVY_ATOM>  (981) 
1 0 0 0 1 0 0 1 0 0 0 1 0 0 0 1 1 0 0 0

>  <DIFUSE_FUNC_ATOM>  (981) 
n/a

>  <FINAL_SINGLE_POINT_ENERGY>  (981) 
0

>  <NONCOV_INTER_ENERGY_QM>  (981) 
0

>  <FF_Energy>  (981) 
-4.69

>  <QM_Energy>  (981) 
-11.42

>  <source>  (981) 
ETAM_MSM

>  <Index>  (981) 
5995

$$$$
ETAM-pdb3h6s-A-LYS-204:MSM-pdb3h6s-A-MET-124
     RDKit          3D

 20 18  0  0  0  0  0  0  0  0999 V2000
    1.2722    0.9394    0.0000 C   0  0  0  0  0  0  0  0  0  0  0  0
    2.0063    0.4379    0.3988 H   0  0  0  0  0  0  0  0  0  0  0  0
    1.0375    1.7502    0.4884 H   0  0  0  0  0  0  0  0  0  0  0  0
    1.5191    1.1912   -1.0314 H   0  0  0  0  0  0  0  0  0  0  0  0
    0.0000    0.0000    0.0000 C   0  0  0  0  0  0  0  0  0  0  0  0
    0.0327   -0.5568   -0.8163 H   0  0  0  0  0  0  0  0  0  0  0  0
    0.0322   -0.5570    0.8168 H   0  0  0  0  0  0  0  0  0  0  0  0
   -1.2722    0.8271    0.0000 N   0  0  0  0  0  4  0  0  0  0  0  0
   -1.5742    0.9433   -0.9409 H   0  0  0  0  0  0  0  0  0  0  0  0
   -1.9633    0.3453    0.5282 H   0  0  0  0  0  0  0  0  0  0  0  0
   -1.0758    1.7113    0.4123 H   0  0  0  0  0  0  0  0  0  0  0  0
   -2.2591   -2.6270    2.0758 C   0  0  0  0  0  0  0  0  0  0  0  0
   -2.8194   -3.1279    2.7413 H   0  0  0  0  0  0  0  0  0  0  0  0
   -1.6196   -2.0334    2.5727 H   0  0  0  0  0  0  0  0  0  0  0  0
   -1.6988   -3.3363    1.4668 H   0  0  0  0  0  0  0  0  0  0  0  0
   -3.3315   -1.6212    0.9787 S   0  0  0  0  0  0  0  0  0  0  0  0
   -4.0929   -0.5153    2.1804 C   0  0  0  0  0  0  0  0  0  0  0  0
   -5.0831   -0.5108    2.0440 H   0  0  0  0  0  0  0  0  0  0  0  0
   -3.8824   -0.8350    3.1040 H   0  0  0  0  0  0  0  0  0  0  0  0
   -3.7328    0.4081    2.0538 H   0  0  0  0  0  0  0  0  0  0  0  0
  1  5  1  0
  5  8  1  0
  1  2  1  0
  1  3  1  0
  1  4  1  0
  5  6  1  0
  5  7  1  0
  8  9  1  0
  8 10  1  0
  8 11  1  0
 12 16  1  0
 16 17  1  0
 12 13  1  0
 12 14  1  0
 12 15  1  0
 17 18  1  0
 17 19  1  0
 17 20  1  0
M  CHG  1   8   1
M  END
>  <PDB_ID>  (982) 
pdb3h6s

>  <RESIDUE_NAME>  (982) 
LYS   MET

>  <FRAG_NAME>  (982) 
ETAM   MSM

>  <FRAG_ATOM_NUM>  (982) 
fragi: 11  fragj: 9

>  <atom.prop.CHAIN_ID>  (982) 
A A A A A A A A A A A Z Z Z Z Z Z Z Z Z

>  <atom.prop.IS_HEAVY_ATOM>  (982) 
1 0 0 0 1 0 0 1 0 0 0 1 0 0 0 1 1 0 0 0

>  <DIFUSE_FUNC_ATOM>  (982) 
n/a

>  <FINAL_SINGLE_POINT_ENERGY>  (982) 
0

>  <NONCOV_INTER_ENERGY_QM>  (982) 
0

>  <FF_Energy>  (982) 
-4.72

>  <QM_Energy>  (982) 
-14.08

>  <source>  (982) 
ETAM_MSM

>  <Index>  (982) 
6000

$$$$
ETAM-pdb3h6s-B-LYS-204:MSM-pdb3h6s-B-MET-124
     RDKit          3D

 20 18  0  0  0  0  0  0  0  0999 V2000
    1.2260    1.0308   -0.0000 C   0  0  0  0  0  0  0  0  0  0  0  0
    1.9513    0.6260    0.5261 H   0  0  0  0  0  0  0  0  0  0  0  0
    0.9029    1.8716    0.3933 H   0  0  0  0  0  0  0  0  0  0  0  0
    1.5931    1.2313   -1.0066 H   0  0  0  0  0  0  0  0  0  0  0  0
    0.0000    0.0000    0.0000 C   0  0  0  0  0  0  0  0  0  0  0  0
    0.0714   -0.5254   -0.8167 H   0  0  0  0  0  0  0  0  0  0  0  0
    0.0710   -0.5251    0.8165 H   0  0  0  0  0  0  0  0  0  0  0  0
   -1.2260    0.8250    0.0000 N   0  0  0  0  0  4  0  0  0  0  0  0
   -1.0542    1.6840   -0.4842 H   0  0  0  0  0  0  0  0  0  0  0  0
   -1.9655    0.3289   -0.4588 H   0  0  0  0  0  0  0  0  0  0  0  0
   -1.4972    1.0253    0.9430 H   0  0  0  0  0  0  0  0  0  0  0  0
   -2.4573   -2.9840    1.1642 C   0  0  0  0  0  0  0  0  0  0  0  0
   -3.0955   -3.5549    1.7031 H   0  0  0  0  0  0  0  0  0  0  0  0
   -1.7847   -2.5868    1.8084 H   0  0  0  0  0  0  0  0  0  0  0  0
   -1.9263   -3.6290    0.4641 H   0  0  0  0  0  0  0  0  0  0  0  0
   -3.3482   -1.6804    0.2742 S   0  0  0  0  0  0  0  0  0  0  0  0
   -4.0283   -0.7852    1.6679 C   0  0  0  0  0  0  0  0  0  0  0  0
   -4.8144   -1.2835    2.0356 H   0  0  0  0  0  0  0  0  0  0  0  0
   -3.3306   -0.6929    2.3811 H   0  0  0  0  0  0  0  0  0  0  0  0
   -4.3212    0.1251    1.3720 H   0  0  0  0  0  0  0  0  0  0  0  0
  1  5  1  0
  5  8  1  0
  1  2  1  0
  1  3  1  0
  1  4  1  0
  5  6  1  0
  5  7  1  0
  8  9  1  0
  8 10  1  0
  8 11  1  0
 12 16  1  0
 16 17  1  0
 12 13  1  0
 12 14  1  0
 12 15  1  0
 17 18  1  0
 17 19  1  0
 17 20  1  0
M  CHG  1   8   1
M  END
>  <PDB_ID>  (983) 
pdb3h6s

>  <RESIDUE_NAME>  (983) 
LYS   MET

>  <FRAG_NAME>  (983) 
ETAM   MSM

>  <FRAG_ATOM_NUM>  (983) 
fragi: 11  fragj: 9

>  <atom.prop.CHAIN_ID>  (983) 
A A A A A A A A A A A Z Z Z Z Z Z Z Z Z

>  <atom.prop.IS_HEAVY_ATOM>  (983) 
1 0 0 0 1 0 0 1 0 0 0 1 0 0 0 1 1 0 0 0

>  <DIFUSE_FUNC_ATOM>  (983) 
n/a

>  <FINAL_SINGLE_POINT_ENERGY>  (983) 
0

>  <NONCOV_INTER_ENERGY_QM>  (983) 
0

>  <FF_Energy>  (983) 
-4.59

>  <QM_Energy>  (983) 
-13.22

>  <source>  (983) 
ETAM_MSM

>  <Index>  (983) 
6001

$$$$
ETAM-pdb3h6s-C-LYS-204:MSM-pdb3h6s-C-MET-124
     RDKit          3D

 20 18  0  0  0  0  0  0  0  0999 V2000
    1.2543    0.8881    0.0000 C   0  0  0  0  0  0  0  0  0  0  0  0
    2.0518    0.2946    0.1580 H   0  0  0  0  0  0  0  0  0  0  0  0
    1.1772    1.5302    0.7703 H   0  0  0  0  0  0  0  0  0  0  0  0
    1.4080    1.4526   -0.9197 H   0  0  0  0  0  0  0  0  0  0  0  0
    0.0000    0.0000    0.0000 C   0  0  0  0  0  0  0  0  0  0  0  0
   -0.0018   -0.5614   -0.8169 H   0  0  0  0  0  0  0  0  0  0  0  0
   -0.0023   -0.5614    0.8159 H   0  0  0  0  0  0  0  0  0  0  0  0
   -1.2543    0.8655    0.0000 N   0  0  0  0  0  4  0  0  0  0  0  0
   -1.1306    1.5977   -0.6601 H   0  0  0  0  0  0  0  0  0  0  0  0
   -2.0287    0.2956   -0.2524 H   0  0  0  0  0  0  0  0  0  0  0  0
   -1.3791    1.2373    0.9138 H   0  0  0  0  0  0  0  0  0  0  0  0
   -2.5405   -3.2414    0.5752 C   0  0  0  0  0  0  0  0  0  0  0  0
   -3.1726   -3.9208    0.9417 H   0  0  0  0  0  0  0  0  0  0  0  0
   -1.8240   -3.0494    1.2419 H   0  0  0  0  0  0  0  0  0  0  0  0
   -2.0840   -3.6372   -0.3320 H   0  0  0  0  0  0  0  0  0  0  0  0
   -3.4389   -1.6984    0.1361 S   0  0  0  0  0  0  0  0  0  0  0  0
   -4.0536   -1.1556    1.7475 C   0  0  0  0  0  0  0  0  0  0  0  0
   -3.8720   -0.1798    1.8558 H   0  0  0  0  0  0  0  0  0  0  0  0
   -5.0366   -1.3241    1.7971 H   0  0  0  0  0  0  0  0  0  0  0  0
   -3.5866   -1.6678    2.4656 H   0  0  0  0  0  0  0  0  0  0  0  0
  1  5  1  0
  5  8  1  0
  1  2  1  0
  1  3  1  0
  1  4  1  0
  5  6  1  0
  5  7  1  0
  8  9  1  0
  8 10  1  0
  8 11  1  0
 12 16  1  0
 16 17  1  0
 12 13  1  0
 12 14  1  0
 12 15  1  0
 17 18  1  0
 17 19  1  0
 17 20  1  0
M  CHG  1   8   1
M  END
>  <PDB_ID>  (984) 
pdb3h6s

>  <RESIDUE_NAME>  (984) 
LYS   MET

>  <FRAG_NAME>  (984) 
ETAM   MSM

>  <FRAG_ATOM_NUM>  (984) 
fragi: 11  fragj: 9

>  <atom.prop.CHAIN_ID>  (984) 
A A A A A A A A A A A Z Z Z Z Z Z Z Z Z

>  <atom.prop.IS_HEAVY_ATOM>  (984) 
1 0 0 0 1 0 0 1 0 0 0 1 0 0 0 1 1 0 0 0

>  <DIFUSE_FUNC_ATOM>  (984) 
n/a

>  <FINAL_SINGLE_POINT_ENERGY>  (984) 
0

>  <NONCOV_INTER_ENERGY_QM>  (984) 
0

>  <FF_Energy>  (984) 
-4.9

>  <QM_Energy>  (984) 
-14.78

>  <source>  (984) 
ETAM_MSM

>  <Index>  (984) 
6002

$$$$
ETAM-pdb4dyn-A-LYS-184:MSM-pdb4dyn-A-MET-189
     RDKit          3D

 20 18  0  0  0  0  0  0  0  0999 V2000
    1.2496    0.8665    0.0000 C   0  0  0  0  0  0  0  0  0  0  0  0
    1.2946    1.3602    0.8634 H   0  0  0  0  0  0  0  0  0  0  0  0
    1.1914    1.5075   -0.7595 H   0  0  0  0  0  0  0  0  0  0  0  0
    2.1554    0.2704   -0.1105 H   0  0  0  0  0  0  0  0  0  0  0  0
    0.0000    0.0000    0.0000 C   0  0  0  0  0  0  0  0  0  0  0  0
    0.0071   -0.5828   -0.8161 H   0  0  0  0  0  0  0  0  0  0  0  0
    0.0060   -0.5829    0.8167 H   0  0  0  0  0  0  0  0  0  0  0  0
   -1.2496    0.8220   -0.0000 N   0  0  0  0  0  4  0  0  0  0  0  0
   -1.6957    0.7403    0.8898 H   0  0  0  0  0  0  0  0  0  0  0  0
   -1.0142    1.7770   -0.1738 H   0  0  0  0  0  0  0  0  0  0  0  0
   -1.8608    0.4891   -0.7155 H   0  0  0  0  0  0  0  0  0  0  0  0
    3.8490    4.8486   -2.7123 C   0  0  0  0  0  0  0  0  0  0  0  0
    4.3091    3.9304   -2.8048 H   0  0  0  0  0  0  0  0  0  0  0  0
    4.5551    5.4506   -2.2617 H   0  0  0  0  0  0  0  0  0  0  0  0
    3.6618    5.2360   -3.7137 H   0  0  0  0  0  0  0  0  0  0  0  0
    2.3701    4.7203   -1.6826 S   0  0  0  0  0  0  0  0  0  0  0  0
    1.6343    3.2093   -2.2646 C   0  0  0  0  0  0  0  0  0  0  0  0
    0.9517    3.4108   -2.9720 H   0  0  0  0  0  0  0  0  0  0  0  0
    2.3408    2.6117   -2.6529 H   0  0  0  0  0  0  0  0  0  0  0  0
    1.1855    2.7319   -1.5043 H   0  0  0  0  0  0  0  0  0  0  0  0
  1  5  1  0
  5  8  1  0
  1  2  1  0
  1  3  1  0
  1  4  1  0
  5  6  1  0
  5  7  1  0
  8  9  1  0
  8 10  1  0
  8 11  1  0
 12 16  1  0
 16 17  1  0
 12 13  1  0
 12 14  1  0
 12 15  1  0
 17 18  1  0
 17 19  1  0
 17 20  1  0
M  CHG  1   8   1
M  END
>  <PDB_ID>  (985) 
pdb4dyn

>  <RESIDUE_NAME>  (985) 
LYS   MET

>  <FRAG_NAME>  (985) 
ETAM   MSM

>  <FRAG_ATOM_NUM>  (985) 
fragi: 11  fragj: 9

>  <atom.prop.CHAIN_ID>  (985) 
A A A A A A A A A A A Z Z Z Z Z Z Z Z Z

>  <atom.prop.IS_HEAVY_ATOM>  (985) 
1 0 0 0 1 0 0 1 0 0 0 1 0 0 0 1 1 0 0 0

>  <DIFUSE_FUNC_ATOM>  (985) 
n/a

>  <FINAL_SINGLE_POINT_ENERGY>  (985) 
0

>  <NONCOV_INTER_ENERGY_QM>  (985) 
0

>  <FF_Energy>  (985) 
47.18

>  <QM_Energy>  (985) 
5.79

>  <source>  (985) 
ETAM_MSM

>  <Index>  (985) 
6004

$$$$
ETAM-pdb3h7b-A-LYS-66:MSM-pdb3h7b-C-MET-1
     RDKit          3D

 20 18  0  0  0  0  0  0  0  0999 V2000
    1.2553    0.7919   -0.0000 C   0  0  0  0  0  0  0  0  0  0  0  0
    1.2327    1.4494    0.7437 H   0  0  0  0  0  0  0  0  0  0  0  0
    1.3556    1.2546   -0.8736 H   0  0  0  0  0  0  0  0  0  0  0  0
    2.1107    0.1321    0.1455 H   0  0  0  0  0  0  0  0  0  0  0  0
    0.0000    0.0000    0.0000 C   0  0  0  0  0  0  0  0  0  0  0  0
   -0.0354   -0.5975   -0.8164 H   0  0  0  0  0  0  0  0  0  0  0  0
   -0.0356   -0.5974    0.8169 H   0  0  0  0  0  0  0  0  0  0  0  0
   -1.2553    0.8531   -0.0000 N   0  0  0  0  0  4  0  0  0  0  0  0
   -1.8809    0.4965    0.6868 H   0  0  0  0  0  0  0  0  0  0  0  0
   -1.0011    1.7907    0.2159 H   0  0  0  0  0  0  0  0  0  0  0  0
   -1.6699    0.8065   -0.9028 H   0  0  0  0  0  0  0  0  0  0  0  0
   -4.1540    2.4567    0.3745 C   0  0  0  0  0  0  0  0  0  0  0  0
   -3.8435    3.4485    0.2954 H   0  0  0  0  0  0  0  0  0  0  0  0
   -3.3409    1.9908    0.8323 H   0  0  0  0  0  0  0  0  0  0  0  0
   -4.9906    2.4266    1.0724 H   0  0  0  0  0  0  0  0  0  0  0  0
   -4.5064    1.7648   -1.1725 S   0  0  0  0  0  0  0  0  0  0  0  0
   -5.1447    0.1559   -0.6904 C   0  0  0  0  0  0  0  0  0  0  0  0
   -4.6074   -0.1993    0.0751 H   0  0  0  0  0  0  0  0  0  0  0  0
   -6.1017    0.2462   -0.4131 H   0  0  0  0  0  0  0  0  0  0  0  0
   -5.0792   -0.4741   -1.4644 H   0  0  0  0  0  0  0  0  0  0  0  0
  1  5  1  0
  5  8  1  0
  1  2  1  0
  1  3  1  0
  1  4  1  0
  5  6  1  0
  5  7  1  0
  8  9  1  0
  8 10  1  0
  8 11  1  0
 12 16  1  0
 16 17  1  0
 12 13  1  0
 12 14  1  0
 12 15  1  0
 17 18  1  0
 17 19  1  0
 17 20  1  0
M  CHG  1   8   1
M  END
>  <PDB_ID>  (986) 
pdb3h7b

>  <RESIDUE_NAME>  (986) 
LYS   MET

>  <FRAG_NAME>  (986) 
ETAM   MSM

>  <FRAG_ATOM_NUM>  (986) 
fragi: 11  fragj: 9

>  <atom.prop.CHAIN_ID>  (986) 
A A A A A A A A A A A Z Z Z Z Z Z Z Z Z

>  <atom.prop.IS_HEAVY_ATOM>  (986) 
1 0 0 0 1 0 0 1 0 0 0 1 0 0 0 1 1 0 0 0

>  <DIFUSE_FUNC_ATOM>  (986) 
n/a

>  <FINAL_SINGLE_POINT_ENERGY>  (986) 
0

>  <NONCOV_INTER_ENERGY_QM>  (986) 
0

>  <FF_Energy>  (986) 
-0.93

>  <QM_Energy>  (986) 
-6.84

>  <source>  (986) 
ETAM_MSM

>  <Index>  (986) 
6017

$$$$
ETAM-pdb3h86-B-LYS-77:MSM-pdb3h86-B-MET-73
     RDKit          3D

 20 18  0  0  0  0  0  0  0  0999 V2000
    1.2598    0.8737   -0.0000 C   0  0  0  0  0  0  0  0  0  0  0  0
    1.1366    1.6072   -0.6580 H   0  0  0  0  0  0  0  0  0  0  0  0
    2.0373    0.3086   -0.2478 H   0  0  0  0  0  0  0  0  0  0  0  0
    1.4487    1.3143    0.9789 H   0  0  0  0  0  0  0  0  0  0  0  0
    0.0000    0.0000    0.0000 C   0  0  0  0  0  0  0  0  0  0  0  0
    0.0290   -0.5970   -0.8159 H   0  0  0  0  0  0  0  0  0  0  0  0
    0.0287   -0.5968    0.8159 H   0  0  0  0  0  0  0  0  0  0  0  0
   -1.2598    0.7720    0.0000 N   0  0  0  0  0  4  0  0  0  0  0  0
   -1.0665    1.7327   -0.2077 H   0  0  0  0  0  0  0  0  0  0  0  0
   -1.8813    0.4029   -0.6931 H   0  0  0  0  0  0  0  0  0  0  0  0
   -1.6934    0.7090    0.9008 H   0  0  0  0  0  0  0  0  0  0  0  0
   -4.1992    2.0288    3.3560 C   0  0  0  0  0  0  0  0  0  0  0  0
   -4.3098    1.1478    3.9099 H   0  0  0  0  0  0  0  0  0  0  0  0
   -4.7959    2.7072    3.8848 H   0  0  0  0  0  0  0  0  0  0  0  0
   -3.1625    2.3527    3.4481 H   0  0  0  0  0  0  0  0  0  0  0  0
   -4.8307    1.8049    1.6855 S   0  0  0  0  0  0  0  0  0  0  0  0
   -3.8802    0.3967    1.0753 C   0  0  0  0  0  0  0  0  0  0  0  0
   -2.9427    0.6875    0.8926 H   0  0  0  0  0  0  0  0  0  0  0  0
   -3.8804   -0.3247    1.7659 H   0  0  0  0  0  0  0  0  0  0  0  0
   -4.2980    0.0582    0.2334 H   0  0  0  0  0  0  0  0  0  0  0  0
  1  5  1  0
  5  8  1  0
  1  2  1  0
  1  3  1  0
  1  4  1  0
  5  6  1  0
  5  7  1  0
  8  9  1  0
  8 10  1  0
  8 11  1  0
 12 16  1  0
 16 17  1  0
 12 13  1  0
 12 14  1  0
 12 15  1  0
 17 18  1  0
 17 19  1  0
 17 20  1  0
M  CHG  1   8   1
M  END
>  <PDB_ID>  (987) 
pdb3h86

>  <RESIDUE_NAME>  (987) 
LYS   MET

>  <FRAG_NAME>  (987) 
ETAM   MSM

>  <FRAG_ATOM_NUM>  (987) 
fragi: 11  fragj: 9

>  <atom.prop.CHAIN_ID>  (987) 
A A A A A A A A A A A Z Z Z Z Z Z Z Z Z

>  <atom.prop.IS_HEAVY_ATOM>  (987) 
1 0 0 0 1 0 0 1 0 0 0 1 0 0 0 1 1 0 0 0

>  <DIFUSE_FUNC_ATOM>  (987) 
n/a

>  <FINAL_SINGLE_POINT_ENERGY>  (987) 
0

>  <NONCOV_INTER_ENERGY_QM>  (987) 
0

>  <FF_Energy>  (987) 
35.73

>  <QM_Energy>  (987) 
14.06

>  <source>  (987) 
ETAM_MSM

>  <Index>  (987) 
6023

$$$$
ETAM-pdb3h8f-B-LYS-279:MSM-pdb3h8f-B-MET-287
     RDKit          3D

 20 18  0  0  0  0  0  0  0  0999 V2000
    1.2315    0.8774   -0.0000 C   0  0  0  0  0  0  0  0  0  0  0  0
    2.0316    0.3219    0.1779 H   0  0  0  0  0  0  0  0  0  0  0  0
    1.1303    1.5853    0.6848 H   0  0  0  0  0  0  0  0  0  0  0  0
    1.3672    1.3614   -0.9672 H   0  0  0  0  0  0  0  0  0  0  0  0
    0.0000    0.0000    0.0000 C   0  0  0  0  0  0  0  0  0  0  0  0
    0.0029   -0.5724   -0.8156 H   0  0  0  0  0  0  0  0  0  0  0  0
    0.0026   -0.5726    0.8165 H   0  0  0  0  0  0  0  0  0  0  0  0
   -1.2315    0.8432    0.0000 N   0  0  0  0  0  4  0  0  0  0  0  0
   -1.8291    0.5529    0.7460 H   0  0  0  0  0  0  0  0  0  0  0  0
   -0.9751    1.8004    0.1269 H   0  0  0  0  0  0  0  0  0  0  0  0
   -1.7052    0.7347   -0.8723 H   0  0  0  0  0  0  0  0  0  0  0  0
    0.9514    0.0093    3.7762 C   0  0  0  0  0  0  0  0  0  0  0  0
    1.4671    0.8143    4.1340 H   0  0  0  0  0  0  0  0  0  0  0  0
    1.2330   -0.0993    2.8016 H   0  0  0  0  0  0  0  0  0  0  0  0
    1.2939   -0.8708    4.3205 H   0  0  0  0  0  0  0  0  0  0  0  0
   -0.8936    0.3279    3.8813 S   0  0  0  0  0  0  0  0  0  0  0  0
   -0.9122    1.7056    5.0407 C   0  0  0  0  0  0  0  0  0  0  0  0
   -1.2866    1.3977    5.9145 H   0  0  0  0  0  0  0  0  0  0  0  0
    0.0213    2.0383    5.1746 H   0  0  0  0  0  0  0  0  0  0  0  0
   -1.4808    2.4405    4.6727 H   0  0  0  0  0  0  0  0  0  0  0  0
  1  5  1  0
  5  8  1  0
  1  2  1  0
  1  3  1  0
  1  4  1  0
  5  6  1  0
  5  7  1  0
  8  9  1  0
  8 10  1  0
  8 11  1  0
 12 16  1  0
 16 17  1  0
 12 13  1  0
 12 14  1  0
 12 15  1  0
 17 18  1  0
 17 19  1  0
 17 20  1  0
M  CHG  1   8   1
M  END
>  <PDB_ID>  (988) 
pdb3h8f

>  <RESIDUE_NAME>  (988) 
LYS   MET

>  <FRAG_NAME>  (988) 
ETAM   MSM

>  <FRAG_ATOM_NUM>  (988) 
fragi: 11  fragj: 9

>  <atom.prop.CHAIN_ID>  (988) 
A A A A A A A A A A A Z Z Z Z Z Z Z Z Z

>  <atom.prop.IS_HEAVY_ATOM>  (988) 
1 0 0 0 1 0 0 1 0 0 0 1 0 0 0 1 1 0 0 0

>  <DIFUSE_FUNC_ATOM>  (988) 
n/a

>  <FINAL_SINGLE_POINT_ENERGY>  (988) 
0

>  <NONCOV_INTER_ENERGY_QM>  (988) 
0

>  <FF_Energy>  (988) 
-4.35

>  <QM_Energy>  (988) 
-10.43

>  <source>  (988) 
ETAM_MSM

>  <Index>  (988) 
6025

$$$$
ETAM-pdb3h8f-C-LYS-279:MSM-pdb3h8f-C-MET-287
     RDKit          3D

 20 18  0  0  0  0  0  0  0  0999 V2000
    1.2306    0.8355    0.0000 C   0  0  0  0  0  0  0  0  0  0  0  0
    2.0230    0.2661    0.1548 H   0  0  0  0  0  0  0  0  0  0  0  0
    1.1552    1.5440    0.6837 H   0  0  0  0  0  0  0  0  0  0  0  0
    1.3434    1.3134   -0.9731 H   0  0  0  0  0  0  0  0  0  0  0  0
    0.0000    0.0000    0.0000 C   0  0  0  0  0  0  0  0  0  0  0  0
   -0.0147   -0.5861   -0.8161 H   0  0  0  0  0  0  0  0  0  0  0  0
   -0.0153   -0.5863    0.8162 H   0  0  0  0  0  0  0  0  0  0  0  0
   -1.2306    0.8451    0.0000 N   0  0  0  0  0  4  0  0  0  0  0  0
   -0.9841    1.7858    0.2264 H   0  0  0  0  0  0  0  0  0  0  0  0
   -1.6500    0.8165   -0.9057 H   0  0  0  0  0  0  0  0  0  0  0  0
   -1.8721    0.4928    0.6794 H   0  0  0  0  0  0  0  0  0  0  0  0
    1.5843   -0.7102    3.3321 C   0  0  0  0  0  0  0  0  0  0  0  0
    2.1296    0.0515    3.7858 H   0  0  0  0  0  0  0  0  0  0  0  0
    1.8160   -0.6017    2.3231 H   0  0  0  0  0  0  0  0  0  0  0  0
    2.0191   -1.6539    3.6614 H   0  0  0  0  0  0  0  0  0  0  0  0
   -0.2195   -0.4577    3.6059 S   0  0  0  0  0  0  0  0  0  0  0  0
   -0.2056    0.5820    5.0701 C   0  0  0  0  0  0  0  0  0  0  0  0
   -0.3486    0.0158    5.8822 H   0  0  0  0  0  0  0  0  0  0  0  0
    0.6768    1.0490    5.1391 H   0  0  0  0  0  0  0  0  0  0  0  0
   -0.9371    1.2610    5.0044 H   0  0  0  0  0  0  0  0  0  0  0  0
  1  5  1  0
  5  8  1  0
  1  2  1  0
  1  3  1  0
  1  4  1  0
  5  6  1  0
  5  7  1  0
  8  9  1  0
  8 10  1  0
  8 11  1  0
 12 16  1  0
 16 17  1  0
 12 13  1  0
 12 14  1  0
 12 15  1  0
 17 18  1  0
 17 19  1  0
 17 20  1  0
M  CHG  1   8   1
M  END
>  <PDB_ID>  (989) 
pdb3h8f

>  <RESIDUE_NAME>  (989) 
LYS   MET

>  <FRAG_NAME>  (989) 
ETAM   MSM

>  <FRAG_ATOM_NUM>  (989) 
fragi: 11  fragj: 9

>  <atom.prop.CHAIN_ID>  (989) 
A A A A A A A A A A A Z Z Z Z Z Z Z Z Z

>  <atom.prop.IS_HEAVY_ATOM>  (989) 
1 0 0 0 1 0 0 1 0 0 0 1 0 0 0 1 1 0 0 0

>  <DIFUSE_FUNC_ATOM>  (989) 
n/a

>  <FINAL_SINGLE_POINT_ENERGY>  (989) 
0

>  <NONCOV_INTER_ENERGY_QM>  (989) 
0

>  <FF_Energy>  (989) 
-3.82

>  <QM_Energy>  (989) 
-9.92

>  <source>  (989) 
ETAM_MSM

>  <Index>  (989) 
6026

$$$$
ETAM-pdb3h8f-E-LYS-279:MSM-pdb3h8f-E-MET-287
     RDKit          3D

 20 18  0  0  0  0  0  0  0  0999 V2000
    1.2130    0.8546    0.0000 C   0  0  0  0  0  0  0  0  0  0  0  0
    1.9764    0.3486    0.3710 H   0  0  0  0  0  0  0  0  0  0  0  0
    1.0400    1.6782    0.5186 H   0  0  0  0  0  0  0  0  0  0  0  0
    1.4477    1.1328   -1.0275 H   0  0  0  0  0  0  0  0  0  0  0  0
    0.0000    0.0000    0.0000 C   0  0  0  0  0  0  0  0  0  0  0  0
   -0.0001   -0.5848   -0.8158 H   0  0  0  0  0  0  0  0  0  0  0  0
   -0.0010   -0.5849    0.8163 H   0  0  0  0  0  0  0  0  0  0  0  0
   -1.2130    0.8286    0.0000 N   0  0  0  0  0  4  0  0  0  0  0  0
   -1.6497    0.7934    0.9017 H   0  0  0  0  0  0  0  0  0  0  0  0
   -0.9771    1.7796   -0.2118 H   0  0  0  0  0  0  0  0  0  0  0  0
   -1.8577    0.4901   -0.6900 H   0  0  0  0  0  0  0  0  0  0  0  0
    0.9931   -0.4671    3.5696 C   0  0  0  0  0  0  0  0  0  0  0  0
    1.5762    0.2022    4.0611 H   0  0  0  0  0  0  0  0  0  0  0  0
    1.3306   -0.5113    2.6130 H   0  0  0  0  0  0  0  0  0  0  0  0
    1.1454   -1.4448    4.0267 H   0  0  0  0  0  0  0  0  0  0  0  0
   -0.7666    0.0476    3.6140 S   0  0  0  0  0  0  0  0  0  0  0  0
   -0.7297    1.2254    4.9572 C   0  0  0  0  0  0  0  0  0  0  0  0
   -1.0528    0.7888    5.7992 H   0  0  0  0  0  0  0  0  0  0  0  0
    0.2070    1.5527    5.0944 H   0  0  0  0  0  0  0  0  0  0  0  0
   -1.3227    2.0027    4.7409 H   0  0  0  0  0  0  0  0  0  0  0  0
  1  5  1  0
  5  8  1  0
  1  2  1  0
  1  3  1  0
  1  4  1  0
  5  6  1  0
  5  7  1  0
  8  9  1  0
  8 10  1  0
  8 11  1  0
 12 16  1  0
 16 17  1  0
 12 13  1  0
 12 14  1  0
 12 15  1  0
 17 18  1  0
 17 19  1  0
 17 20  1  0
M  CHG  1   8   1
M  END
>  <PDB_ID>  (990) 
pdb3h8f

>  <RESIDUE_NAME>  (990) 
LYS   MET

>  <FRAG_NAME>  (990) 
ETAM   MSM

>  <FRAG_ATOM_NUM>  (990) 
fragi: 11  fragj: 9

>  <atom.prop.CHAIN_ID>  (990) 
A A A A A A A A A A A Z Z Z Z Z Z Z Z Z

>  <atom.prop.IS_HEAVY_ATOM>  (990) 
1 0 0 0 1 0 0 1 0 0 0 1 0 0 0 1 1 0 0 0

>  <DIFUSE_FUNC_ATOM>  (990) 
n/a

>  <FINAL_SINGLE_POINT_ENERGY>  (990) 
0

>  <NONCOV_INTER_ENERGY_QM>  (990) 
0

>  <FF_Energy>  (990) 
-4.73

>  <QM_Energy>  (990) 
-12.61

>  <source>  (990) 
ETAM_MSM

>  <Index>  (990) 
6028

$$$$
ETAM-pdb3h8f-F-LYS-279:MSM-pdb3h8f-F-MET-287
     RDKit          3D

 20 18  0  0  0  0  0  0  0  0999 V2000
    1.2266    0.8708    0.0000 C   0  0  0  0  0  0  0  0  0  0  0  0
    2.0065    0.3328    0.3108 H   0  0  0  0  0  0  0  0  0  0  0  0
    1.0780    1.6404    0.6155 H   0  0  0  0  0  0  0  0  0  0  0  0
    1.4451    1.2573   -0.9955 H   0  0  0  0  0  0  0  0  0  0  0  0
    0.0000    0.0000    0.0000 C   0  0  0  0  0  0  0  0  0  0  0  0
    0.0020   -0.5766   -0.8160 H   0  0  0  0  0  0  0  0  0  0  0  0
    0.0015   -0.5763    0.8163 H   0  0  0  0  0  0  0  0  0  0  0  0
   -1.2266    0.8384   -0.0000 N   0  0  0  0  0  4  0  0  0  0  0  0
   -1.6766    0.7697   -0.8901 H   0  0  0  0  0  0  0  0  0  0  0  0
   -1.8491    0.5175    0.7142 H   0  0  0  0  0  0  0  0  0  0  0  0
   -0.9790    1.7911    0.1764 H   0  0  0  0  0  0  0  0  0  0  0  0
    0.9944   -0.3536    3.6925 C   0  0  0  0  0  0  0  0  0  0  0  0
    1.4629    0.4725    4.0784 H   0  0  0  0  0  0  0  0  0  0  0  0
    1.2985   -0.4090    2.7145 H   0  0  0  0  0  0  0  0  0  0  0  0
    1.3451   -1.2387    4.2233 H   0  0  0  0  0  0  0  0  0  0  0  0
   -0.7956   -0.1660    3.7872 S   0  0  0  0  0  0  0  0  0  0  0  0
   -0.8569    1.1683    4.9687 C   0  0  0  0  0  0  0  0  0  0  0  0
   -1.7260    1.6606    4.8805 H   0  0  0  0  0  0  0  0  0  0  0  0
   -0.7793    0.8030    5.8988 H   0  0  0  0  0  0  0  0  0  0  0  0
   -0.1011    1.8047    4.8023 H   0  0  0  0  0  0  0  0  0  0  0  0
  1  5  1  0
  5  8  1  0
  1  2  1  0
  1  3  1  0
  1  4  1  0
  5  6  1  0
  5  7  1  0
  8  9  1  0
  8 10  1  0
  8 11  1  0
 12 16  1  0
 16 17  1  0
 12 13  1  0
 12 14  1  0
 12 15  1  0
 17 18  1  0
 17 19  1  0
 17 20  1  0
M  CHG  1   8   1
M  END
>  <PDB_ID>  (991) 
pdb3h8f

>  <RESIDUE_NAME>  (991) 
LYS   MET

>  <FRAG_NAME>  (991) 
ETAM   MSM

>  <FRAG_ATOM_NUM>  (991) 
fragi: 11  fragj: 9

>  <atom.prop.CHAIN_ID>  (991) 
A A A A A A A A A A A Z Z Z Z Z Z Z Z Z

>  <atom.prop.IS_HEAVY_ATOM>  (991) 
1 0 0 0 1 0 0 1 0 0 0 1 0 0 0 1 1 0 0 0

>  <DIFUSE_FUNC_ATOM>  (991) 
n/a

>  <FINAL_SINGLE_POINT_ENERGY>  (991) 
0

>  <NONCOV_INTER_ENERGY_QM>  (991) 
0

>  <FF_Energy>  (991) 
-4.24

>  <QM_Energy>  (991) 
-10.28

>  <source>  (991) 
ETAM_MSM

>  <Index>  (991) 
6029

$$$$
ETAM-pdb4dyn-B-LYS-229:MSM-pdb4dyn-B-MET-189
     RDKit          3D

 20 18  0  0  0  0  0  0  0  0999 V2000
    1.2434    0.8663    0.0000 C   0  0  0  0  0  0  0  0  0  0  0  0
    1.1478    1.5587    0.7008 H   0  0  0  0  0  0  0  0  0  0  0  0
    1.3436    1.2759   -0.8949 H   0  0  0  0  0  0  0  0  0  0  0  0
    2.1205    0.2565    0.2165 H   0  0  0  0  0  0  0  0  0  0  0  0
    0.0000    0.0000    0.0000 C   0  0  0  0  0  0  0  0  0  0  0  0
    0.0103   -0.5862   -0.8164 H   0  0  0  0  0  0  0  0  0  0  0  0
    0.0101   -0.5862    0.8166 H   0  0  0  0  0  0  0  0  0  0  0  0
   -1.2434    0.8123   -0.0000 N   0  0  0  0  0  4  0  0  0  0  0  0
   -2.0266    0.2219    0.1938 H   0  0  0  0  0  0  0  0  0  0  0  0
   -1.1784    1.5206    0.7030 H   0  0  0  0  0  0  0  0  0  0  0  0
   -1.3614    1.2405   -0.8966 H   0  0  0  0  0  0  0  0  0  0  0  0
   -1.4895    4.1674    0.9306 C   0  0  0  0  0  0  0  0  0  0  0  0
   -1.4011    4.0174   -0.0905 H   0  0  0  0  0  0  0  0  0  0  0  0
   -0.7161    3.6084    1.3335 H   0  0  0  0  0  0  0  0  0  0  0  0
   -1.2832    5.2184    1.1331 H   0  0  0  0  0  0  0  0  0  0  0  0
   -3.0887    3.5669    1.5270 S   0  0  0  0  0  0  0  0  0  0  0  0
   -2.9354    3.8072    3.2971 C   0  0  0  0  0  0  0  0  0  0  0  0
   -1.9672    3.8448    3.5471 H   0  0  0  0  0  0  0  0  0  0  0  0
   -3.3795    4.6655    3.5582 H   0  0  0  0  0  0  0  0  0  0  0  0
   -3.3737    3.0470    3.7775 H   0  0  0  0  0  0  0  0  0  0  0  0
  1  5  1  0
  5  8  1  0
  1  2  1  0
  1  3  1  0
  1  4  1  0
  5  6  1  0
  5  7  1  0
  8  9  1  0
  8 10  1  0
  8 11  1  0
 12 16  1  0
 16 17  1  0
 12 13  1  0
 12 14  1  0
 12 15  1  0
 17 18  1  0
 17 19  1  0
 17 20  1  0
M  CHG  1   8   1
M  END
>  <PDB_ID>  (992) 
pdb4dyn

>  <RESIDUE_NAME>  (992) 
LYS   MET

>  <FRAG_NAME>  (992) 
ETAM   MSM

>  <FRAG_ATOM_NUM>  (992) 
fragi: 11  fragj: 9

>  <atom.prop.CHAIN_ID>  (992) 
A A A A A A A A A A A Z Z Z Z Z Z Z Z Z

>  <atom.prop.IS_HEAVY_ATOM>  (992) 
1 0 0 0 1 0 0 1 0 0 0 1 0 0 0 1 1 0 0 0

>  <DIFUSE_FUNC_ATOM>  (992) 
n/a

>  <FINAL_SINGLE_POINT_ENERGY>  (992) 
0

>  <NONCOV_INTER_ENERGY_QM>  (992) 
0

>  <FF_Energy>  (992) 
-3.25

>  <QM_Energy>  (992) 
-9.08

>  <source>  (992) 
ETAM_MSM

>  <Index>  (992) 
6031

$$$$
ETAM-pdb3h7b-D-LYS-66:MSM-pdb3h7b-F-MET-1
     RDKit          3D

 20 18  0  0  0  0  0  0  0  0999 V2000
    1.1861    0.8651    0.0000 C   0  0  0  0  0  0  0  0  0  0  0  0
    1.0316    1.6562    0.5886 H   0  0  0  0  0  0  0  0  0  0  0  0
    1.3886    1.1664   -0.9291 H   0  0  0  0  0  0  0  0  0  0  0  0
    2.0556    0.3276    0.3784 H   0  0  0  0  0  0  0  0  0  0  0  0
    0.0000    0.0000    0.0000 C   0  0  0  0  0  0  0  0  0  0  0  0
   -0.0103   -0.5699   -0.8162 H   0  0  0  0  0  0  0  0  0  0  0  0
   -0.0108   -0.5693    0.8158 H   0  0  0  0  0  0  0  0  0  0  0  0
   -1.1861    0.8642    0.0000 N   0  0  0  0  0  4  0  0  0  0  0  0
   -1.0779    1.5929   -0.6811 H   0  0  0  0  0  0  0  0  0  0  0  0
   -2.0017    0.3251   -0.2255 H   0  0  0  0  0  0  0  0  0  0  0  0
   -1.3074    1.2781    0.9053 H   0  0  0  0  0  0  0  0  0  0  0  0
   -4.3346    2.0307   -0.1375 C   0  0  0  0  0  0  0  0  0  0  0  0
   -3.9365    2.8955   -0.5870 H   0  0  0  0  0  0  0  0  0  0  0  0
   -3.5518    1.7469    0.5079 H   0  0  0  0  0  0  0  0  0  0  0  0
   -5.1752    2.3420    0.4826 H   0  0  0  0  0  0  0  0  0  0  0  0
   -4.6599    0.7874   -1.3270 S   0  0  0  0  0  0  0  0  0  0  0  0
   -5.2976   -0.5273   -0.2850 C   0  0  0  0  0  0  0  0  0  0  0  0
   -4.6095   -0.7763    0.3965 H   0  0  0  0  0  0  0  0  0  0  0  0
   -6.1268   -0.2137    0.1782 H   0  0  0  0  0  0  0  0  0  0  0  0
   -5.5126   -1.3255   -0.8490 H   0  0  0  0  0  0  0  0  0  0  0  0
  1  5  1  0
  5  8  1  0
  1  2  1  0
  1  3  1  0
  1  4  1  0
  5  6  1  0
  5  7  1  0
  8  9  1  0
  8 10  1  0
  8 11  1  0
 12 16  1  0
 16 17  1  0
 12 13  1  0
 12 14  1  0
 12 15  1  0
 17 18  1  0
 17 19  1  0
 17 20  1  0
M  CHG  1   8   1
M  END
>  <PDB_ID>  (993) 
pdb3h7b

>  <RESIDUE_NAME>  (993) 
LYS   MET

>  <FRAG_NAME>  (993) 
ETAM   MSM

>  <FRAG_ATOM_NUM>  (993) 
fragi: 11  fragj: 9

>  <atom.prop.CHAIN_ID>  (993) 
A A A A A A A A A A A Z Z Z Z Z Z Z Z Z

>  <atom.prop.IS_HEAVY_ATOM>  (993) 
1 0 0 0 1 0 0 1 0 0 0 1 0 0 0 1 1 0 0 0

>  <DIFUSE_FUNC_ATOM>  (993) 
n/a

>  <FINAL_SINGLE_POINT_ENERGY>  (993) 
0

>  <NONCOV_INTER_ENERGY_QM>  (993) 
0

>  <FF_Energy>  (993) 
-1.15

>  <QM_Energy>  (993) 
-7.14

>  <source>  (993) 
ETAM_MSM

>  <Index>  (993) 
6037

$$$$
ETAM-pdb3ham-A-LYS-42:MSM-pdb3ham-A-MET-85
     RDKit          3D

 20 18  0  0  0  0  0  0  0  0999 V2000
    1.2577    0.8565   -0.0000 C   0  0  0  0  0  0  0  0  0  0  0  0
    1.1585    1.5600    0.6995 H   0  0  0  0  0  0  0  0  0  0  0  0
    1.3506    1.2784   -0.8983 H   0  0  0  0  0  0  0  0  0  0  0  0
    2.1480    0.2642    0.2115 H   0  0  0  0  0  0  0  0  0  0  0  0
    0.0000    0.0000    0.0000 C   0  0  0  0  0  0  0  0  0  0  0  0
   -0.0130   -0.5725   -0.8162 H   0  0  0  0  0  0  0  0  0  0  0  0
   -0.0129   -0.5730    0.8160 H   0  0  0  0  0  0  0  0  0  0  0  0
   -1.2577    0.8621   -0.0000 N   0  0  0  0  0  4  0  0  0  0  0  0
   -1.3328    1.3073   -0.8849 H   0  0  0  0  0  0  0  0  0  0  0  0
   -2.0409    0.2727    0.1612 H   0  0  0  0  0  0  0  0  0  0  0  0
   -1.1747    1.5378    0.7243 H   0  0  0  0  0  0  0  0  0  0  0  0
    1.0924   -4.3253   -1.8771 C   0  0  0  0  0  0  0  0  0  0  0  0
    1.4681   -3.7820   -1.0889 H   0  0  0  0  0  0  0  0  0  0  0  0
    1.8686   -4.3939   -2.5489 H   0  0  0  0  0  0  0  0  0  0  0  0
    0.8686   -5.3296   -1.5171 H   0  0  0  0  0  0  0  0  0  0  0  0
   -0.3284   -3.4740   -2.6238 S   0  0  0  0  0  0  0  0  0  0  0  0
   -1.2241   -2.8647   -1.2016 C   0  0  0  0  0  0  0  0  0  0  0  0
   -2.2067   -2.8679   -1.3950 H   0  0  0  0  0  0  0  0  0  0  0  0
   -1.0415   -3.4518   -0.4106 H   0  0  0  0  0  0  0  0  0  0  0  0
   -0.9312   -1.9297   -0.9933 H   0  0  0  0  0  0  0  0  0  0  0  0
  1  5  1  0
  5  8  1  0
  1  2  1  0
  1  3  1  0
  1  4  1  0
  5  6  1  0
  5  7  1  0
  8  9  1  0
  8 10  1  0
  8 11  1  0
 12 16  1  0
 16 17  1  0
 12 13  1  0
 12 14  1  0
 12 15  1  0
 17 18  1  0
 17 19  1  0
 17 20  1  0
M  CHG  1   8   1
M  END
>  <PDB_ID>  (994) 
pdb3ham

>  <RESIDUE_NAME>  (994) 
LYS   MET

>  <FRAG_NAME>  (994) 
ETAM   MSM

>  <FRAG_ATOM_NUM>  (994) 
fragi: 11  fragj: 9

>  <atom.prop.CHAIN_ID>  (994) 
A A A A A A A A A A A Z Z Z Z Z Z Z Z Z

>  <atom.prop.IS_HEAVY_ATOM>  (994) 
1 0 0 0 1 0 0 1 0 0 0 1 0 0 0 1 1 0 0 0

>  <DIFUSE_FUNC_ATOM>  (994) 
n/a

>  <FINAL_SINGLE_POINT_ENERGY>  (994) 
0

>  <NONCOV_INTER_ENERGY_QM>  (994) 
0

>  <FF_Energy>  (994) 
11.46

>  <QM_Energy>  (994) 
2.14

>  <source>  (994) 
ETAM_MSM

>  <Index>  (994) 
6040

$$$$
ETAM-pdb4e2q-B-LYS-208:MSM-pdb4e2q-B-MET-212
     RDKit          3D

 20 18  0  0  0  0  0  0  0  0999 V2000
    1.2587    0.8511   -0.0000 C   0  0  0  0  0  0  0  0  0  0  0  0
    1.1938    1.5112    0.7392 H   0  0  0  0  0  0  0  0  0  0  0  0
    1.3296    1.3110   -0.8769 H   0  0  0  0  0  0  0  0  0  0  0  0
    2.1430    0.2321    0.1516 H   0  0  0  0  0  0  0  0  0  0  0  0
    0.0000    0.0000    0.0000 C   0  0  0  0  0  0  0  0  0  0  0  0
    0.0053   -0.5923   -0.8167 H   0  0  0  0  0  0  0  0  0  0  0  0
    0.0051   -0.5926    0.8161 H   0  0  0  0  0  0  0  0  0  0  0  0
   -1.2587    0.8105    0.0000 N   0  0  0  0  0  4  0  0  0  0  0  0
   -1.0234    1.7802   -0.0147 H   0  0  0  0  0  0  0  0  0  0  0  0
   -1.7958    0.5801   -0.8089 H   0  0  0  0  0  0  0  0  0  0  0  0
   -1.7822    0.6024    0.8240 H   0  0  0  0  0  0  0  0  0  0  0  0
    0.3546    4.8068    0.2984 C   0  0  0  0  0  0  0  0  0  0  0  0
    0.1660    4.3645   -0.6114 H   0  0  0  0  0  0  0  0  0  0  0  0
    1.3714    4.7178    0.4320 H   0  0  0  0  0  0  0  0  0  0  0  0
    0.1099    5.8662    0.2215 H   0  0  0  0  0  0  0  0  0  0  0  0
   -0.5383    3.9514    1.6187 S   0  0  0  0  0  0  0  0  0  0  0  0
   -2.2031    3.9745    0.9860 C   0  0  0  0  0  0  0  0  0  0  0  0
   -2.8368    3.6231    1.6795 H   0  0  0  0  0  0  0  0  0  0  0  0
   -2.4645    4.9134    0.7489 H   0  0  0  0  0  0  0  0  0  0  0  0
   -2.2644    3.4006    0.1658 H   0  0  0  0  0  0  0  0  0  0  0  0
  1  5  1  0
  5  8  1  0
  1  2  1  0
  1  3  1  0
  1  4  1  0
  5  6  1  0
  5  7  1  0
  8  9  1  0
  8 10  1  0
  8 11  1  0
 12 16  1  0
 16 17  1  0
 12 13  1  0
 12 14  1  0
 12 15  1  0
 17 18  1  0
 17 19  1  0
 17 20  1  0
M  CHG  1   8   1
M  END
>  <PDB_ID>  (995) 
pdb4e2q

>  <RESIDUE_NAME>  (995) 
LYS   MET

>  <FRAG_NAME>  (995) 
ETAM   MSM

>  <FRAG_ATOM_NUM>  (995) 
fragi: 11  fragj: 9

>  <atom.prop.CHAIN_ID>  (995) 
A A A A A A A A A A A Z Z Z Z Z Z Z Z Z

>  <atom.prop.IS_HEAVY_ATOM>  (995) 
1 0 0 0 1 0 0 1 0 0 0 1 0 0 0 1 1 0 0 0

>  <DIFUSE_FUNC_ATOM>  (995) 
n/a

>  <FINAL_SINGLE_POINT_ENERGY>  (995) 
0

>  <NONCOV_INTER_ENERGY_QM>  (995) 
0

>  <FF_Energy>  (995) 
-3.43

>  <QM_Energy>  (995) 
-9.33

>  <source>  (995) 
ETAM_MSM

>  <Index>  (995) 
6046

$$$$
ETAM-pdb4e2q-G-LYS-208:MSM-pdb4e2q-G-MET-212
     RDKit          3D

 20 18  0  0  0  0  0  0  0  0999 V2000
    1.2759    0.8647    0.0000 C   0  0  0  0  0  0  0  0  0  0  0  0
    1.2768    1.4223    0.8195 H   0  0  0  0  0  0  0  0  0  0  0  0
    1.2712    1.4293   -0.8139 H   0  0  0  0  0  0  0  0  0  0  0  0
    2.1778    0.2525   -0.0051 H   0  0  0  0  0  0  0  0  0  0  0  0
    0.0000    0.0000    0.0000 C   0  0  0  0  0  0  0  0  0  0  0  0
    0.0208   -0.5963   -0.8164 H   0  0  0  0  0  0  0  0  0  0  0  0
    0.0201   -0.5968    0.8159 H   0  0  0  0  0  0  0  0  0  0  0  0
   -1.2759    0.7843   -0.0000 N   0  0  0  0  0  4  0  0  0  0  0  0
   -2.0411    0.1639   -0.1613 H   0  0  0  0  0  0  0  0  0  0  0  0
   -1.3843    1.2325    0.8851 H   0  0  0  0  0  0  0  0  0  0  0  0
   -1.2377    1.4701   -0.7240 H   0  0  0  0  0  0  0  0  0  0  0  0
    0.4998    4.6574    1.7429 C   0  0  0  0  0  0  0  0  0  0  0  0
    0.5094    4.3269    0.7692 H   0  0  0  0  0  0  0  0  0  0  0  0
    1.4623    4.5258    2.0793 H   0  0  0  0  0  0  0  0  0  0  0  0
    0.2806    5.7251    1.7394 H   0  0  0  0  0  0  0  0  0  0  0  0
   -0.6624    3.6741    2.7379 S   0  0  0  0  0  0  0  0  0  0  0  0
   -1.9245    3.2522    1.5115 C   0  0  0  0  0  0  0  0  0  0  0  0
   -1.5016    2.7307    0.7736 H   0  0  0  0  0  0  0  0  0  0  0  0
   -2.6348    2.7043    1.9489 H   0  0  0  0  0  0  0  0  0  0  0  0
   -2.3201    4.0928    1.1481 H   0  0  0  0  0  0  0  0  0  0  0  0
  1  5  1  0
  5  8  1  0
  1  2  1  0
  1  3  1  0
  1  4  1  0
  5  6  1  0
  5  7  1  0
  8  9  1  0
  8 10  1  0
  8 11  1  0
 12 16  1  0
 16 17  1  0
 12 13  1  0
 12 14  1  0
 12 15  1  0
 17 18  1  0
 17 19  1  0
 17 20  1  0
M  CHG  1   8   1
M  END
>  <PDB_ID>  (996) 
pdb4e2q

>  <RESIDUE_NAME>  (996) 
LYS   MET

>  <FRAG_NAME>  (996) 
ETAM   MSM

>  <FRAG_ATOM_NUM>  (996) 
fragi: 11  fragj: 9

>  <atom.prop.CHAIN_ID>  (996) 
A A A A A A A A A A A Z Z Z Z Z Z Z Z Z

>  <atom.prop.IS_HEAVY_ATOM>  (996) 
1 0 0 0 1 0 0 1 0 0 0 1 0 0 0 1 1 0 0 0

>  <DIFUSE_FUNC_ATOM>  (996) 
n/a

>  <FINAL_SINGLE_POINT_ENERGY>  (996) 
0

>  <NONCOV_INTER_ENERGY_QM>  (996) 
0

>  <FF_Energy>  (996) 
10.07

>  <QM_Energy>  (996) 
3.32

>  <source>  (996) 
ETAM_MSM

>  <Index>  (996) 
6051

$$$$
ETAM-pdb4e2q-J-LYS-208:MSM-pdb4e2q-J-MET-212
     RDKit          3D

 20 18  0  0  0  0  0  0  0  0999 V2000
    1.2613    0.8503    0.0000 C   0  0  0  0  0  0  0  0  0  0  0  0
    1.2387    1.4569    0.7857 H   0  0  0  0  0  0  0  0  0  0  0  0
    1.2968    1.3697   -0.8441 H   0  0  0  0  0  0  0  0  0  0  0  0
    2.1555    0.2305    0.0656 H   0  0  0  0  0  0  0  0  0  0  0  0
    0.0000    0.0000    0.0000 C   0  0  0  0  0  0  0  0  0  0  0  0
    0.0073   -0.5953   -0.8165 H   0  0  0  0  0  0  0  0  0  0  0  0
    0.0068   -0.5948    0.8164 H   0  0  0  0  0  0  0  0  0  0  0  0
   -1.2613    0.8030   -0.0000 N   0  0  0  0  0  4  0  0  0  0  0  0
   -1.3291    1.3073    0.8591 H   0  0  0  0  0  0  0  0  0  0  0  0
   -1.2431    1.4424   -0.7666 H   0  0  0  0  0  0  0  0  0  0  0  0
   -2.0422    0.1876   -0.0932 H   0  0  0  0  0  0  0  0  0  0  0  0
    0.2390    4.8347   -0.0094 C   0  0  0  0  0  0  0  0  0  0  0  0
    0.0367    4.1728   -0.7751 H   0  0  0  0  0  0  0  0  0  0  0  0
    1.2671    4.8256    0.0779 H   0  0  0  0  0  0  0  0  0  0  0  0
   -0.0668    5.8303   -0.3310 H   0  0  0  0  0  0  0  0  0  0  0  0
   -0.5334    4.2553    1.5480 S   0  0  0  0  0  0  0  0  0  0  0  0
   -2.1048    3.5115    0.9539 C   0  0  0  0  0  0  0  0  0  0  0  0
   -2.5858    3.1307    1.7359 H   0  0  0  0  0  0  0  0  0  0  0  0
   -2.6465    4.2253    0.5256 H   0  0  0  0  0  0  0  0  0  0  0  0
   -1.8850    2.7988    0.2981 H   0  0  0  0  0  0  0  0  0  0  0  0
  1  5  1  0
  5  8  1  0
  1  2  1  0
  1  3  1  0
  1  4  1  0
  5  6  1  0
  5  7  1  0
  8  9  1  0
  8 10  1  0
  8 11  1  0
 12 16  1  0
 16 17  1  0
 12 13  1  0
 12 14  1  0
 12 15  1  0
 17 18  1  0
 17 19  1  0
 17 20  1  0
M  CHG  1   8   1
M  END
>  <PDB_ID>  (997) 
pdb4e2q

>  <RESIDUE_NAME>  (997) 
LYS   MET

>  <FRAG_NAME>  (997) 
ETAM   MSM

>  <FRAG_ATOM_NUM>  (997) 
fragi: 11  fragj: 9

>  <atom.prop.CHAIN_ID>  (997) 
A A A A A A A A A A A Z Z Z Z Z Z Z Z Z

>  <atom.prop.IS_HEAVY_ATOM>  (997) 
1 0 0 0 1 0 0 1 0 0 0 1 0 0 0 1 1 0 0 0

>  <DIFUSE_FUNC_ATOM>  (997) 
n/a

>  <FINAL_SINGLE_POINT_ENERGY>  (997) 
0

>  <NONCOV_INTER_ENERGY_QM>  (997) 
0

>  <FF_Energy>  (997) 
8.99

>  <QM_Energy>  (997) 
1.17

>  <source>  (997) 
ETAM_MSM

>  <Index>  (997) 
6054

$$$$
ETAM-pdb4e2q-L-LYS-208:MSM-pdb4e2q-L-MET-212
     RDKit          3D

 20 18  0  0  0  0  0  0  0  0999 V2000
    1.2617    0.8645   -0.0000 C   0  0  0  0  0  0  0  0  0  0  0  0
    1.2518    1.4414    0.8117 H   0  0  0  0  0  0  0  0  0  0  0  0
    1.2608    1.4278   -0.8212 H   0  0  0  0  0  0  0  0  0  0  0  0
    2.1751    0.2698    0.0110 H   0  0  0  0  0  0  0  0  0  0  0  0
    0.0000    0.0000    0.0000 C   0  0  0  0  0  0  0  0  0  0  0  0
    0.0156   -0.5923   -0.8160 H   0  0  0  0  0  0  0  0  0  0  0  0
    0.0155   -0.5921    0.8162 H   0  0  0  0  0  0  0  0  0  0  0  0
   -1.2617    0.7960   -0.0000 N   0  0  0  0  0  4  0  0  0  0  0  0
   -1.4716    1.0817   -0.9340 H   0  0  0  0  0  0  0  0  0  0  0  0
   -2.0071    0.2326    0.3543 H   0  0  0  0  0  0  0  0  0  0  0  0
   -1.1432    1.6014    0.5798 H   0  0  0  0  0  0  0  0  0  0  0  0
   -0.2089    4.8979    0.4058 C   0  0  0  0  0  0  0  0  0  0  0  0
   -0.2953    4.3772   -0.4811 H   0  0  0  0  0  0  0  0  0  0  0  0
    0.8053    4.9257    0.5932 H   0  0  0  0  0  0  0  0  0  0  0  0
   -0.5491    5.9189    0.2328 H   0  0  0  0  0  0  0  0  0  0  0  0
   -1.0752    3.9598    1.7715 S   0  0  0  0  0  0  0  0  0  0  0  0
   -2.7986    3.9849    1.2050 C   0  0  0  0  0  0  0  0  0  0  0  0
   -3.3972    4.1030    1.9936 H   0  0  0  0  0  0  0  0  0  0  0  0
   -2.9191    4.7430    0.5692 H   0  0  0  0  0  0  0  0  0  0  0  0
   -3.0026    3.1218    0.7492 H   0  0  0  0  0  0  0  0  0  0  0  0
  1  5  1  0
  5  8  1  0
  1  2  1  0
  1  3  1  0
  1  4  1  0
  5  6  1  0
  5  7  1  0
  8  9  1  0
  8 10  1  0
  8 11  1  0
 12 16  1  0
 16 17  1  0
 12 13  1  0
 12 14  1  0
 12 15  1  0
 17 18  1  0
 17 19  1  0
 17 20  1  0
M  CHG  1   8   1
M  END
>  <PDB_ID>  (998) 
pdb4e2q

>  <RESIDUE_NAME>  (998) 
LYS   MET

>  <FRAG_NAME>  (998) 
ETAM   MSM

>  <FRAG_ATOM_NUM>  (998) 
fragi: 11  fragj: 9

>  <atom.prop.CHAIN_ID>  (998) 
A A A A A A A A A A A Z Z Z Z Z Z Z Z Z

>  <atom.prop.IS_HEAVY_ATOM>  (998) 
1 0 0 0 1 0 0 1 0 0 0 1 0 0 0 1 1 0 0 0

>  <DIFUSE_FUNC_ATOM>  (998) 
n/a

>  <FINAL_SINGLE_POINT_ENERGY>  (998) 
0

>  <NONCOV_INTER_ENERGY_QM>  (998) 
0

>  <FF_Energy>  (998) 
-3.86

>  <QM_Energy>  (998) 
-12.07

>  <source>  (998) 
ETAM_MSM

>  <Index>  (998) 
6055

$$$$
ETAM-pdb3h6s-D-LYS-204:MSM-pdb3h6s-D-MET-124
     RDKit          3D

 20 18  0  0  0  0  0  0  0  0999 V2000
    1.2319    0.9797    0.0000 C   0  0  0  0  0  0  0  0  0  0  0  0
    1.9652    0.5254    0.4981 H   0  0  0  0  0  0  0  0  0  0  0  0
    0.9484    1.8032    0.4830 H   0  0  0  0  0  0  0  0  0  0  0  0
    1.5690    1.2357   -1.0044 H   0  0  0  0  0  0  0  0  0  0  0  0
    0.0000    0.0000    0.0000 C   0  0  0  0  0  0  0  0  0  0  0  0
    0.0396   -0.5349   -0.8161 H   0  0  0  0  0  0  0  0  0  0  0  0
    0.0391   -0.5351    0.8161 H   0  0  0  0  0  0  0  0  0  0  0  0
   -1.2319    0.8518    0.0000 N   0  0  0  0  0  4  0  0  0  0  0  0
   -1.8806    0.4874    0.6652 H   0  0  0  0  0  0  0  0  0  0  0  0
   -0.9828    1.7866    0.2459 H   0  0  0  0  0  0  0  0  0  0  0  0
   -1.6385    0.8385   -0.9114 H   0  0  0  0  0  0  0  0  0  0  0  0
   -2.5374   -3.1289    0.6976 C   0  0  0  0  0  0  0  0  0  0  0  0
   -3.0787   -3.8067    1.2019 H   0  0  0  0  0  0  0  0  0  0  0  0
   -1.7268   -2.8910    1.2388 H   0  0  0  0  0  0  0  0  0  0  0  0
   -2.1929   -3.6018   -0.2220 H   0  0  0  0  0  0  0  0  0  0  0  0
   -3.5161   -1.6665    0.2859 S   0  0  0  0  0  0  0  0  0  0  0  0
   -4.1311   -1.2835    1.9471 C   0  0  0  0  0  0  0  0  0  0  0  0
   -3.3898   -0.8895    2.4853 H   0  0  0  0  0  0  0  0  0  0  0  0
   -4.8827   -0.6314    1.8736 H   0  0  0  0  0  0  0  0  0  0  0  0
   -4.4527   -2.1246    2.3769 H   0  0  0  0  0  0  0  0  0  0  0  0
  1  5  1  0
  5  8  1  0
  1  2  1  0
  1  3  1  0
  1  4  1  0
  5  6  1  0
  5  7  1  0
  8  9  1  0
  8 10  1  0
  8 11  1  0
 12 16  1  0
 16 17  1  0
 12 13  1  0
 12 14  1  0
 12 15  1  0
 17 18  1  0
 17 19  1  0
 17 20  1  0
M  CHG  1   8   1
M  END
>  <PDB_ID>  (999) 
pdb3h6s

>  <RESIDUE_NAME>  (999) 
LYS   MET

>  <FRAG_NAME>  (999) 
ETAM   MSM

>  <FRAG_ATOM_NUM>  (999) 
fragi: 11  fragj: 9

>  <atom.prop.CHAIN_ID>  (999) 
A A A A A A A A A A A Z Z Z Z Z Z Z Z Z

>  <atom.prop.IS_HEAVY_ATOM>  (999) 
1 0 0 0 1 0 0 1 0 0 0 1 0 0 0 1 1 0 0 0

>  <DIFUSE_FUNC_ATOM>  (999) 
n/a

>  <FINAL_SINGLE_POINT_ENERGY>  (999) 
0

>  <NONCOV_INTER_ENERGY_QM>  (999) 
0

>  <FF_Energy>  (999) 
-4.82

>  <QM_Energy>  (999) 
-12.56

>  <source>  (999) 
ETAM_MSM

>  <Index>  (999) 
6059

$$$$
ETAM-pdb4e8h-B-LYS-83:MSM-pdb4e8h-B-MET-1
     RDKit          3D

 20 18  0  0  0  0  0  0  0  0999 V2000
    1.2390    0.8533    0.0000 C   0  0  0  0  0  0  0  0  0  0  0  0
    1.1308    1.5859   -0.6612 H   0  0  0  0  0  0  0  0  0  0  0  0
    2.0229    0.2886   -0.2264 H   0  0  0  0  0  0  0  0  0  0  0  0
    1.4010    1.2951    0.9832 H   0  0  0  0  0  0  0  0  0  0  0  0
    0.0000    0.0000    0.0000 C   0  0  0  0  0  0  0  0  0  0  0  0
   -0.0032   -0.5832   -0.8160 H   0  0  0  0  0  0  0  0  0  0  0  0
   -0.0044   -0.5832    0.8166 H   0  0  0  0  0  0  0  0  0  0  0  0
   -1.2390    0.8353   -0.0000 N   0  0  0  0  0  4  0  0  0  0  0  0
   -1.6231    0.8538    0.9220 H   0  0  0  0  0  0  0  0  0  0  0  0
   -1.0094    1.7629   -0.2882 H   0  0  0  0  0  0  0  0  0  0  0  0
   -1.9013    0.4400   -0.6334 H   0  0  0  0  0  0  0  0  0  0  0  0
   -1.6776   -1.9652   -4.4042 C   0  0  0  0  0  0  0  0  0  0  0  0
   -0.7550   -1.6207   -4.1384 H   0  0  0  0  0  0  0  0  0  0  0  0
   -2.2221   -1.1457   -4.6749 H   0  0  0  0  0  0  0  0  0  0  0  0
   -1.5708   -2.6184   -5.2702 H   0  0  0  0  0  0  0  0  0  0  0  0
   -2.4613   -2.8218   -3.0228 S   0  0  0  0  0  0  0  0  0  0  0  0
   -1.7465   -1.9489   -1.6317 C   0  0  0  0  0  0  0  0  0  0  0  0
   -2.4354   -1.3496   -1.2209 H   0  0  0  0  0  0  0  0  0  0  0  0
   -1.4309   -2.6086   -0.9475 H   0  0  0  0  0  0  0  0  0  0  0  0
   -0.9712   -1.3982   -1.9437 H   0  0  0  0  0  0  0  0  0  0  0  0
  1  5  1  0
  5  8  1  0
  1  2  1  0
  1  3  1  0
  1  4  1  0
  5  6  1  0
  5  7  1  0
  8  9  1  0
  8 10  1  0
  8 11  1  0
 12 16  1  0
 16 17  1  0
 12 13  1  0
 12 14  1  0
 12 15  1  0
 17 18  1  0
 17 19  1  0
 17 20  1  0
M  CHG  1   8   1
M  END
>  <PDB_ID>  (1000) 
pdb4e8h

>  <RESIDUE_NAME>  (1000) 
LYS   MET

>  <FRAG_NAME>  (1000) 
ETAM   MSM

>  <FRAG_ATOM_NUM>  (1000) 
fragi: 11  fragj: 9

>  <atom.prop.CHAIN_ID>  (1000) 
A A A A A A A A A A A Z Z Z Z Z Z Z Z Z

>  <atom.prop.IS_HEAVY_ATOM>  (1000) 
1 0 0 0 1 0 0 1 0 0 0 1 0 0 0 1 1 0 0 0

>  <DIFUSE_FUNC_ATOM>  (1000) 
n/a

>  <FINAL_SINGLE_POINT_ENERGY>  (1000) 
0

>  <NONCOV_INTER_ENERGY_QM>  (1000) 
0

>  <FF_Energy>  (1000) 
12.49

>  <QM_Energy>  (1000) 
3.03

>  <source>  (1000) 
ETAM_MSM

>  <Index>  (1000) 
6064

$$$$
ETAM-pdb4ecd-B-LYS-365:MSM-pdb4ecd-B-MET-1
     RDKit          3D

 20 18  0  0  0  0  0  0  0  0999 V2000
    1.1817    0.9200   -0.0000 C   0  0  0  0  0  0  0  0  0  0  0  0
    0.8811    1.8362    0.2991 H   0  0  0  0  0  0  0  0  0  0  0  0
    1.5318    0.9996   -0.9432 H   0  0  0  0  0  0  0  0  0  0  0  0
    1.9993    0.5985    0.6452 H   0  0  0  0  0  0  0  0  0  0  0  0
    0.0000    0.0000    0.0000 C   0  0  0  0  0  0  0  0  0  0  0  0
   -0.0061   -0.5358   -0.8160 H   0  0  0  0  0  0  0  0  0  0  0  0
   -0.0069   -0.5360    0.8162 H   0  0  0  0  0  0  0  0  0  0  0  0
   -1.1817    0.9104   -0.0000 N   0  0  0  0  0  4  0  0  0  0  0  0
   -0.8929    1.8263    0.2754 H   0  0  0  0  0  0  0  0  0  0  0  0
   -1.5726    0.9437   -0.9189 H   0  0  0  0  0  0  0  0  0  0  0  0
   -1.8636    0.5662    0.6432 H   0  0  0  0  0  0  0  0  0  0  0  0
    0.1469    4.5214    1.9894 C   0  0  0  0  0  0  0  0  0  0  0  0
    0.8356    4.1932    1.2623 H   0  0  0  0  0  0  0  0  0  0  0  0
    0.2419    3.7709    2.7239 H   0  0  0  0  0  0  0  0  0  0  0  0
    0.5421    5.4436    2.4154 H   0  0  0  0  0  0  0  0  0  0  0  0
   -1.5454    4.5108    1.2988 S   0  0  0  0  0  0  0  0  0  0  0  0
   -2.4930    5.2595    2.6422 C   0  0  0  0  0  0  0  0  0  0  0  0
   -2.0006    5.1328    3.5019 H   0  0  0  0  0  0  0  0  0  0  0  0
   -2.6076    6.2344    2.4599 H   0  0  0  0  0  0  0  0  0  0  0  0
   -3.3873    4.8197    2.6976 H   0  0  0  0  0  0  0  0  0  0  0  0
  1  5  1  0
  5  8  1  0
  1  2  1  0
  1  3  1  0
  1  4  1  0
  5  6  1  0
  5  7  1  0
  8  9  1  0
  8 10  1  0
  8 11  1  0
 12 16  1  0
 16 17  1  0
 12 13  1  0
 12 14  1  0
 12 15  1  0
 17 18  1  0
 17 19  1  0
 17 20  1  0
M  CHG  1   8   1
M  END
>  <PDB_ID>  (1001) 
pdb4ecd

>  <RESIDUE_NAME>  (1001) 
LYS   MET

>  <FRAG_NAME>  (1001) 
ETAM   MSM

>  <FRAG_ATOM_NUM>  (1001) 
fragi: 11  fragj: 9

>  <atom.prop.CHAIN_ID>  (1001) 
A A A A A A A A A A A Z Z Z Z Z Z Z Z Z

>  <atom.prop.IS_HEAVY_ATOM>  (1001) 
1 0 0 0 1 0 0 1 0 0 0 1 0 0 0 1 1 0 0 0

>  <DIFUSE_FUNC_ATOM>  (1001) 
n/a

>  <FINAL_SINGLE_POINT_ENERGY>  (1001) 
0

>  <NONCOV_INTER_ENERGY_QM>  (1001) 
0

>  <FF_Energy>  (1001) 
-4.37

>  <QM_Energy>  (1001) 
-10.49

>  <source>  (1001) 
ETAM_MSM

>  <Index>  (1001) 
6069

$$$$
ETAM-pdb3hjb-A-LYS-85:MSM-pdb3hjb-A-MET-1
     RDKit          3D

 20 18  0  0  0  0  0  0  0  0999 V2000
    1.2453    0.8621   -0.0000 C   0  0  0  0  0  0  0  0  0  0  0  0
    1.2616    1.4106    0.8344 H   0  0  0  0  0  0  0  0  0  0  0  0
    1.2249    1.4628   -0.7977 H   0  0  0  0  0  0  0  0  0  0  0  0
    2.1648    0.2781   -0.0386 H   0  0  0  0  0  0  0  0  0  0  0  0
    0.0000    0.0000    0.0000 C   0  0  0  0  0  0  0  0  0  0  0  0
   -0.0047   -0.5763   -0.8162 H   0  0  0  0  0  0  0  0  0  0  0  0
   -0.0056   -0.5757    0.8162 H   0  0  0  0  0  0  0  0  0  0  0  0
   -1.2453    0.8475    0.0000 N   0  0  0  0  0  4  0  0  0  0  0  0
   -1.8146    0.5837   -0.7744 H   0  0  0  0  0  0  0  0  0  0  0  0
   -1.7381    0.6965    0.8535 H   0  0  0  0  0  0  0  0  0  0  0  0
   -0.9832    1.8058   -0.0795 H   0  0  0  0  0  0  0  0  0  0  0  0
   -0.2970    5.1793   -1.7195 C   0  0  0  0  0  0  0  0  0  0  0  0
   -1.0562    5.8606   -1.7054 H   0  0  0  0  0  0  0  0  0  0  0  0
   -0.5504    4.4815   -2.4181 H   0  0  0  0  0  0  0  0  0  0  0  0
    0.6234    5.6761   -2.0264 H   0  0  0  0  0  0  0  0  0  0  0  0
   -0.1015    4.4166   -0.1051 S   0  0  0  0  0  0  0  0  0  0  0  0
    0.0012    5.8686    0.9514 C   0  0  0  0  0  0  0  0  0  0  0  0
   -0.5628    6.5995    0.5679 H   0  0  0  0  0  0  0  0  0  0  0  0
   -0.3282    5.6370    1.8664 H   0  0  0  0  0  0  0  0  0  0  0  0
    0.9514    6.1731    1.0052 H   0  0  0  0  0  0  0  0  0  0  0  0
  1  5  1  0
  5  8  1  0
  1  2  1  0
  1  3  1  0
  1  4  1  0
  5  6  1  0
  5  7  1  0
  8  9  1  0
  8 10  1  0
  8 11  1  0
 12 16  1  0
 16 17  1  0
 12 13  1  0
 12 14  1  0
 12 15  1  0
 17 18  1  0
 17 19  1  0
 17 20  1  0
M  CHG  1   8   1
M  END
>  <PDB_ID>  (1002) 
pdb3hjb

>  <RESIDUE_NAME>  (1002) 
LYS   MET

>  <FRAG_NAME>  (1002) 
ETAM   MSM

>  <FRAG_ATOM_NUM>  (1002) 
fragi: 11  fragj: 9

>  <atom.prop.CHAIN_ID>  (1002) 
A A A A A A A A A A A Z Z Z Z Z Z Z Z Z

>  <atom.prop.IS_HEAVY_ATOM>  (1002) 
1 0 0 0 1 0 0 1 0 0 0 1 0 0 0 1 1 0 0 0

>  <DIFUSE_FUNC_ATOM>  (1002) 
n/a

>  <FINAL_SINGLE_POINT_ENERGY>  (1002) 
0

>  <NONCOV_INTER_ENERGY_QM>  (1002) 
0

>  <FF_Energy>  (1002) 
-5.48

>  <QM_Energy>  (1002) 
-12.92

>  <source>  (1002) 
ETAM_MSM

>  <Index>  (1002) 
6097

$$$$
ETAM-pdb4edb-D-LYS-153:MSM-pdb4edb-D-MET-149
     RDKit          3D

 20 18  0  0  0  0  0  0  0  0999 V2000
    1.2626    0.8535    0.0000 C   0  0  0  0  0  0  0  0  0  0  0  0
    1.1675    1.5599   -0.7007 H   0  0  0  0  0  0  0  0  0  0  0  0
    2.0414    0.2673   -0.2201 H   0  0  0  0  0  0  0  0  0  0  0  0
    1.4481    1.3360    0.9597 H   0  0  0  0  0  0  0  0  0  0  0  0
    0.0000    0.0000    0.0000 C   0  0  0  0  0  0  0  0  0  0  0  0
    0.0132   -0.5979   -0.8159 H   0  0  0  0  0  0  0  0  0  0  0  0
    0.0127   -0.5970    0.8166 H   0  0  0  0  0  0  0  0  0  0  0  0
   -1.2626    0.7921   -0.0000 N   0  0  0  0  0  4  0  0  0  0  0  0
   -2.0381    0.1786   -0.1473 H   0  0  0  0  0  0  0  0  0  0  0  0
   -1.3630    1.2542    0.8797 H   0  0  0  0  0  0  0  0  0  0  0  0
   -1.2270    1.4697   -0.7331 H   0  0  0  0  0  0  0  0  0  0  0  0
   -4.8913    1.9025   -0.6016 C   0  0  0  0  0  0  0  0  0  0  0  0
   -4.3556    2.1042    0.2377 H   0  0  0  0  0  0  0  0  0  0  0  0
   -5.7781    1.5084   -0.2995 H   0  0  0  0  0  0  0  0  0  0  0  0
   -5.0827    2.8372   -1.1287 H   0  0  0  0  0  0  0  0  0  0  0  0
   -3.9998    0.7292   -1.6605 S   0  0  0  0  0  0  0  0  0  0  0  0
   -4.3773   -0.8227   -0.8382 C   0  0  0  0  0  0  0  0  0  0  0  0
   -3.6739   -1.0166   -0.1549 H   0  0  0  0  0  0  0  0  0  0  0  0
   -5.2690   -0.7539   -0.3901 H   0  0  0  0  0  0  0  0  0  0  0  0
   -4.3996   -1.5602   -1.5129 H   0  0  0  0  0  0  0  0  0  0  0  0
  1  5  1  0
  5  8  1  0
  1  2  1  0
  1  3  1  0
  1  4  1  0
  5  6  1  0
  5  7  1  0
  8  9  1  0
  8 10  1  0
  8 11  1  0
 12 16  1  0
 16 17  1  0
 12 13  1  0
 12 14  1  0
 12 15  1  0
 17 18  1  0
 17 19  1  0
 17 20  1  0
M  CHG  1   8   1
M  END
>  <PDB_ID>  (1003) 
pdb4edb

>  <RESIDUE_NAME>  (1003) 
LYS   MET

>  <FRAG_NAME>  (1003) 
ETAM   MSM

>  <FRAG_ATOM_NUM>  (1003) 
fragi: 11  fragj: 9

>  <atom.prop.CHAIN_ID>  (1003) 
A A A A A A A A A A A Z Z Z Z Z Z Z Z Z

>  <atom.prop.IS_HEAVY_ATOM>  (1003) 
1 0 0 0 1 0 0 1 0 0 0 1 0 0 0 1 1 0 0 0

>  <DIFUSE_FUNC_ATOM>  (1003) 
n/a

>  <FINAL_SINGLE_POINT_ENERGY>  (1003) 
0

>  <NONCOV_INTER_ENERGY_QM>  (1003) 
0

>  <FF_Energy>  (1003) 
-3.48

>  <QM_Energy>  (1003) 
-10.52

>  <source>  (1003) 
ETAM_MSM

>  <Index>  (1003) 
6101

$$$$
ETAM-pdb3hm1-A-LYS-481:MSM-pdb3hm1-A-MET-315
     RDKit          3D

 20 18  0  0  0  0  0  0  0  0999 V2000
    1.2594    0.8661    0.0000 C   0  0  0  0  0  0  0  0  0  0  0  0
    1.1641    1.5623   -0.7066 H   0  0  0  0  0  0  0  0  0  0  0  0
    2.0422    0.2835   -0.1950 H   0  0  0  0  0  0  0  0  0  0  0  0
    1.4185    1.3598    0.9586 H   0  0  0  0  0  0  0  0  0  0  0  0
    0.0000    0.0000    0.0000 C   0  0  0  0  0  0  0  0  0  0  0  0
    0.0152   -0.5901   -0.8161 H   0  0  0  0  0  0  0  0  0  0  0  0
    0.0142   -0.5904    0.8168 H   0  0  0  0  0  0  0  0  0  0  0  0
   -1.2594    0.8007   -0.0000 N   0  0  0  0  0  4  0  0  0  0  0  0
   -1.9257    0.3677    0.6058 H   0  0  0  0  0  0  0  0  0  0  0  0
   -1.0620    1.7252    0.3224 H   0  0  0  0  0  0  0  0  0  0  0  0
   -1.6251    0.8399   -0.9294 H   0  0  0  0  0  0  0  0  0  0  0  0
   -5.4220    1.9761    1.7462 C   0  0  0  0  0  0  0  0  0  0  0  0
   -4.9460    2.7402    1.2550 H   0  0  0  0  0  0  0  0  0  0  0  0
   -6.2786    2.3891    2.1311 H   0  0  0  0  0  0  0  0  0  0  0  0
   -5.7057    1.2229    1.0112 H   0  0  0  0  0  0  0  0  0  0  0  0
   -4.3848    1.3118    3.0583 S   0  0  0  0  0  0  0  0  0  0  0  0
   -3.2445    0.3029    2.1042 C   0  0  0  0  0  0  0  0  0  0  0  0
   -2.6237    0.8962    1.5923 H   0  0  0  0  0  0  0  0  0  0  0  0
   -2.7152   -0.2780    2.7233 H   0  0  0  0  0  0  0  0  0  0  0  0
   -3.7596   -0.2700    1.4674 H   0  0  0  0  0  0  0  0  0  0  0  0
  1  5  1  0
  5  8  1  0
  1  2  1  0
  1  3  1  0
  1  4  1  0
  5  6  1  0
  5  7  1  0
  8  9  1  0
  8 10  1  0
  8 11  1  0
 12 16  1  0
 16 17  1  0
 12 13  1  0
 12 14  1  0
 12 15  1  0
 17 18  1  0
 17 19  1  0
 17 20  1  0
M  CHG  1   8   1
M  END
>  <PDB_ID>  (1004) 
pdb3hm1

>  <RESIDUE_NAME>  (1004) 
LYS   MET

>  <FRAG_NAME>  (1004) 
ETAM   MSM

>  <FRAG_ATOM_NUM>  (1004) 
fragi: 11  fragj: 9

>  <atom.prop.CHAIN_ID>  (1004) 
A A A A A A A A A A A Z Z Z Z Z Z Z Z Z

>  <atom.prop.IS_HEAVY_ATOM>  (1004) 
1 0 0 0 1 0 0 1 0 0 0 1 0 0 0 1 1 0 0 0

>  <DIFUSE_FUNC_ATOM>  (1004) 
n/a

>  <FINAL_SINGLE_POINT_ENERGY>  (1004) 
0

>  <NONCOV_INTER_ENERGY_QM>  (1004) 
0

>  <FF_Energy>  (1004) 
13.54

>  <QM_Energy>  (1004) 
7.92

>  <source>  (1004) 
ETAM_MSM

>  <Index>  (1004) 
6102

$$$$
ETAM-pdb3hjb-B-LYS-85:MSM-pdb3hjb-B-MET-1
     RDKit          3D

 20 18  0  0  0  0  0  0  0  0999 V2000
    1.2424    0.8747   -0.0000 C   0  0  0  0  0  0  0  0  0  0  0  0
    1.2280    1.4501    0.8161 H   0  0  0  0  0  0  0  0  0  0  0  0
    1.2273    1.4502   -0.8168 H   0  0  0  0  0  0  0  0  0  0  0  0
    2.1650    0.2943    0.0008 H   0  0  0  0  0  0  0  0  0  0  0  0
    0.0000    0.0000    0.0000 C   0  0  0  0  0  0  0  0  0  0  0  0
    0.0064   -0.5780   -0.8167 H   0  0  0  0  0  0  0  0  0  0  0  0
    0.0065   -0.5772    0.8166 H   0  0  0  0  0  0  0  0  0  0  0  0
   -1.2424    0.8305    0.0000 N   0  0  0  0  0  4  0  0  0  0  0  0
   -2.0251    0.2507    0.2219 H   0  0  0  0  0  0  0  0  0  0  0  0
   -1.1540    1.5537    0.6831 H   0  0  0  0  0  0  0  0  0  0  0  0
   -1.3673    1.2346   -0.9045 H   0  0  0  0  0  0  0  0  0  0  0  0
    0.0717    5.0946   -1.9436 C   0  0  0  0  0  0  0  0  0  0  0  0
   -0.7407    5.6918   -2.1031 H   0  0  0  0  0  0  0  0  0  0  0  0
    0.0055    4.3372   -2.6255 H   0  0  0  0  0  0  0  0  0  0  0  0
    0.9761    5.6701   -2.1412 H   0  0  0  0  0  0  0  0  0  0  0  0
    0.0544    4.4360   -0.2603 S   0  0  0  0  0  0  0  0  0  0  0  0
   -0.2523    5.9196    0.7012 C   0  0  0  0  0  0  0  0  0  0  0  0
    0.5715    6.1620    1.2143 H   0  0  0  0  0  0  0  0  0  0  0  0
   -0.4953    6.6716    0.0879 H   0  0  0  0  0  0  0  0  0  0  0  0
   -1.0050    5.7542    1.3400 H   0  0  0  0  0  0  0  0  0  0  0  0
  1  5  1  0
  5  8  1  0
  1  2  1  0
  1  3  1  0
  1  4  1  0
  5  6  1  0
  5  7  1  0
  8  9  1  0
  8 10  1  0
  8 11  1  0
 12 16  1  0
 16 17  1  0
 12 13  1  0
 12 14  1  0
 12 15  1  0
 17 18  1  0
 17 19  1  0
 17 20  1  0
M  CHG  1   8   1
M  END
>  <PDB_ID>  (1005) 
pdb3hjb

>  <RESIDUE_NAME>  (1005) 
LYS   MET

>  <FRAG_NAME>  (1005) 
ETAM   MSM

>  <FRAG_ATOM_NUM>  (1005) 
fragi: 11  fragj: 9

>  <atom.prop.CHAIN_ID>  (1005) 
A A A A A A A A A A A Z Z Z Z Z Z Z Z Z

>  <atom.prop.IS_HEAVY_ATOM>  (1005) 
1 0 0 0 1 0 0 1 0 0 0 1 0 0 0 1 1 0 0 0

>  <DIFUSE_FUNC_ATOM>  (1005) 
n/a

>  <FINAL_SINGLE_POINT_ENERGY>  (1005) 
0

>  <NONCOV_INTER_ENERGY_QM>  (1005) 
0

>  <FF_Energy>  (1005) 
-5.02

>  <QM_Energy>  (1005) 
-11.17

>  <source>  (1005) 
ETAM_MSM

>  <Index>  (1005) 
6113

$$$$
ETAM-pdb4ep2-A-LYS-120:MSM-pdb4ep2-A-MET-136
     RDKit          3D

 20 18  0  0  0  0  0  0  0  0999 V2000
    1.2376    0.8857   -0.0000 C   0  0  0  0  0  0  0  0  0  0  0  0
    1.1141    1.6030    0.6762 H   0  0  0  0  0  0  0  0  0  0  0  0
    1.3480    1.2762   -0.9075 H   0  0  0  0  0  0  0  0  0  0  0  0
    2.1327    0.3163    0.2506 H   0  0  0  0  0  0  0  0  0  0  0  0
    0.0000    0.0000    0.0000 C   0  0  0  0  0  0  0  0  0  0  0  0
    0.0161   -0.5783   -0.8167 H   0  0  0  0  0  0  0  0  0  0  0  0
    0.0162   -0.5785    0.8164 H   0  0  0  0  0  0  0  0  0  0  0  0
   -1.2376    0.8176   -0.0000 N   0  0  0  0  0  4  0  0  0  0  0  0
   -1.0139    1.7625    0.2391 H   0  0  0  0  0  0  0  0  0  0  0  0
   -1.6534    0.7945   -0.9092 H   0  0  0  0  0  0  0  0  0  0  0  0
   -1.8821    0.4481    0.6699 H   0  0  0  0  0  0  0  0  0  0  0  0
   -4.3843    2.4262   -0.0972 C   0  0  0  0  0  0  0  0  0  0  0  0
   -4.5630    2.9442   -0.9628 H   0  0  0  0  0  0  0  0  0  0  0  0
   -5.1340    2.6980    0.5466 H   0  0  0  0  0  0  0  0  0  0  0  0
   -4.4744    1.3602   -0.3062 H   0  0  0  0  0  0  0  0  0  0  0  0
   -2.7703    2.8620    0.5847 S   0  0  0  0  0  0  0  0  0  0  0  0
   -2.9888    2.2692    2.2515 C   0  0  0  0  0  0  0  0  0  0  0  0
   -3.7330    2.7721    2.6964 H   0  0  0  0  0  0  0  0  0  0  0  0
   -3.2144    1.2930    2.2379 H   0  0  0  0  0  0  0  0  0  0  0  0
   -2.1438    2.4040    2.7736 H   0  0  0  0  0  0  0  0  0  0  0  0
  1  5  1  0
  5  8  1  0
  1  2  1  0
  1  3  1  0
  1  4  1  0
  5  6  1  0
  5  7  1  0
  8  9  1  0
  8 10  1  0
  8 11  1  0
 12 16  1  0
 16 17  1  0
 12 13  1  0
 12 14  1  0
 12 15  1  0
 17 18  1  0
 17 19  1  0
 17 20  1  0
M  CHG  1   8   1
M  END
>  <PDB_ID>  (1006) 
pdb4ep2

>  <RESIDUE_NAME>  (1006) 
LYS   MET

>  <FRAG_NAME>  (1006) 
ETAM   MSM

>  <FRAG_ATOM_NUM>  (1006) 
fragi: 11  fragj: 9

>  <atom.prop.CHAIN_ID>  (1006) 
A A A A A A A A A A A Z Z Z Z Z Z Z Z Z

>  <atom.prop.IS_HEAVY_ATOM>  (1006) 
1 0 0 0 1 0 0 1 0 0 0 1 0 0 0 1 1 0 0 0

>  <DIFUSE_FUNC_ATOM>  (1006) 
n/a

>  <FINAL_SINGLE_POINT_ENERGY>  (1006) 
0

>  <NONCOV_INTER_ENERGY_QM>  (1006) 
0

>  <FF_Energy>  (1006) 
17.49

>  <QM_Energy>  (1006) 
0.77

>  <source>  (1006) 
ETAM_MSM

>  <Index>  (1006) 
6120

$$$$
ETAM-pdb4ep3-A-LYS-20:MSM-pdb4ep3-A-MET-36
     RDKit          3D

 20 18  0  0  0  0  0  0  0  0999 V2000
    1.2586    0.8647    0.0000 C   0  0  0  0  0  0  0  0  0  0  0  0
    1.9849    0.3641    0.4511 H   0  0  0  0  0  0  0  0  0  0  0  0
    1.0592    1.7105    0.4753 H   0  0  0  0  0  0  0  0  0  0  0  0
    1.5670    1.0944   -1.0199 H   0  0  0  0  0  0  0  0  0  0  0  0
    0.0000    0.0000    0.0000 C   0  0  0  0  0  0  0  0  0  0  0  0
    0.0148   -0.5916   -0.8167 H   0  0  0  0  0  0  0  0  0  0  0  0
    0.0148   -0.5915    0.8163 H   0  0  0  0  0  0  0  0  0  0  0  0
   -1.2586    0.7988   -0.0000 N   0  0  0  0  0  4  0  0  0  0  0  0
   -1.0320    1.7718    0.0132 H   0  0  0  0  0  0  0  0  0  0  0  0
   -1.7839    0.5875   -0.8239 H   0  0  0  0  0  0  0  0  0  0  0  0
   -1.7963    0.5674    0.8100 H   0  0  0  0  0  0  0  0  0  0  0  0
   -1.4577   -1.6226    4.1676 C   0  0  0  0  0  0  0  0  0  0  0  0
   -1.5812   -0.9395    4.9204 H   0  0  0  0  0  0  0  0  0  0  0  0
   -1.5082   -2.5422    4.6144 H   0  0  0  0  0  0  0  0  0  0  0  0
   -2.2997   -1.5294    3.4818 H   0  0  0  0  0  0  0  0  0  0  0  0
    0.1262   -1.3928    3.3429 S   0  0  0  0  0  0  0  0  0  0  0  0
    0.1970   -2.7487    2.1718 C   0  0  0  0  0  0  0  0  0  0  0  0
   -0.6966   -3.1970    2.1234 H   0  0  0  0  0  0  0  0  0  0  0  0
    0.4414   -2.3974    1.2674 H   0  0  0  0  0  0  0  0  0  0  0  0
    0.8856   -3.4112    2.4682 H   0  0  0  0  0  0  0  0  0  0  0  0
  1  5  1  0
  5  8  1  0
  1  2  1  0
  1  3  1  0
  1  4  1  0
  5  6  1  0
  5  7  1  0
  8  9  1  0
  8 10  1  0
  8 11  1  0
 12 16  1  0
 16 17  1  0
 12 13  1  0
 12 14  1  0
 12 15  1  0
 17 18  1  0
 17 19  1  0
 17 20  1  0
M  CHG  1   8   1
M  END
>  <PDB_ID>  (1007) 
pdb4ep3

>  <RESIDUE_NAME>  (1007) 
LYS   MET

>  <FRAG_NAME>  (1007) 
ETAM   MSM

>  <FRAG_ATOM_NUM>  (1007) 
fragi: 11  fragj: 9

>  <atom.prop.CHAIN_ID>  (1007) 
A A A A A A A A A A A Z Z Z Z Z Z Z Z Z

>  <atom.prop.IS_HEAVY_ATOM>  (1007) 
1 0 0 0 1 0 0 1 0 0 0 1 0 0 0 1 1 0 0 0

>  <DIFUSE_FUNC_ATOM>  (1007) 
n/a

>  <FINAL_SINGLE_POINT_ENERGY>  (1007) 
0

>  <NONCOV_INTER_ENERGY_QM>  (1007) 
0

>  <FF_Energy>  (1007) 
0.33

>  <QM_Energy>  (1007) 
-6.52

>  <source>  (1007) 
ETAM_MSM

>  <Index>  (1007) 
6121

$$$$
ETAM-pdb4ep3-A-LYS-120:MSM-pdb4ep3-A-MET-136
     RDKit          3D

 20 18  0  0  0  0  0  0  0  0999 V2000
    1.2326    0.8716   -0.0000 C   0  0  0  0  0  0  0  0  0  0  0  0
    1.2146    1.4518    0.8168 H   0  0  0  0  0  0  0  0  0  0  0  0
    1.2141    1.4526   -0.8162 H   0  0  0  0  0  0  0  0  0  0  0  0
    2.1578    0.2953   -0.0001 H   0  0  0  0  0  0  0  0  0  0  0  0
    0.0000    0.0000    0.0000 C   0  0  0  0  0  0  0  0  0  0  0  0
    0.0068   -0.5797   -0.8165 H   0  0  0  0  0  0  0  0  0  0  0  0
    0.0073   -0.5805    0.8165 H   0  0  0  0  0  0  0  0  0  0  0  0
   -1.2326    0.8265   -0.0000 N   0  0  0  0  0  4  0  0  0  0  0  0
   -1.7720    0.6229   -0.8175 H   0  0  0  0  0  0  0  0  0  0  0  0
   -1.7722    0.6205    0.8163 H   0  0  0  0  0  0  0  0  0  0  0  0
   -0.9836    1.7954    0.0016 H   0  0  0  0  0  0  0  0  0  0  0  0
   -4.4277    1.4194    1.0919 C   0  0  0  0  0  0  0  0  0  0  0  0
   -4.4806    2.2888    0.5415 H   0  0  0  0  0  0  0  0  0  0  0  0
   -5.2343    1.4637    1.7319 H   0  0  0  0  0  0  0  0  0  0  0  0
   -4.5623    0.5726    0.4189 H   0  0  0  0  0  0  0  0  0  0  0  0
   -2.8791    1.3642    2.0344 S   0  0  0  0  0  0  0  0  0  0  0  0
   -2.6501   -0.3840    2.3789 C   0  0  0  0  0  0  0  0  0  0  0  0
   -2.0387   -0.7815    1.6946 H   0  0  0  0  0  0  0  0  0  0  0  0
   -2.2497   -0.4949    3.2883 H   0  0  0  0  0  0  0  0  0  0  0  0
   -3.5349   -0.8489    2.3457 H   0  0  0  0  0  0  0  0  0  0  0  0
  1  5  1  0
  5  8  1  0
  1  2  1  0
  1  3  1  0
  1  4  1  0
  5  6  1  0
  5  7  1  0
  8  9  1  0
  8 10  1  0
  8 11  1  0
 12 16  1  0
 16 17  1  0
 12 13  1  0
 12 14  1  0
 12 15  1  0
 17 18  1  0
 17 19  1  0
 17 20  1  0
M  CHG  1   8   1
M  END
>  <PDB_ID>  (1008) 
pdb4ep3

>  <RESIDUE_NAME>  (1008) 
LYS   MET

>  <FRAG_NAME>  (1008) 
ETAM   MSM

>  <FRAG_ATOM_NUM>  (1008) 
fragi: 11  fragj: 9

>  <atom.prop.CHAIN_ID>  (1008) 
A A A A A A A A A A A Z Z Z Z Z Z Z Z Z

>  <atom.prop.IS_HEAVY_ATOM>  (1008) 
1 0 0 0 1 0 0 1 0 0 0 1 0 0 0 1 1 0 0 0

>  <DIFUSE_FUNC_ATOM>  (1008) 
n/a

>  <FINAL_SINGLE_POINT_ENERGY>  (1008) 
0

>  <NONCOV_INTER_ENERGY_QM>  (1008) 
0

>  <FF_Energy>  (1008) 
15.06

>  <QM_Energy>  (1008) 
2.38

>  <source>  (1008) 
ETAM_MSM

>  <Index>  (1008) 
6127

$$$$
ETAM-pdb4el8-A-LYS-314:MSM-pdb4el8-A-MET-146
     RDKit          3D

 20 18  0  0  0  0  0  0  0  0999 V2000
    1.2808    0.8414    0.0000 C   0  0  0  0  0  0  0  0  0  0  0  0
    1.3695    1.2754    0.8949 H   0  0  0  0  0  0  0  0  0  0  0  0
    1.1945    1.5408   -0.7076 H   0  0  0  0  0  0  0  0  0  0  0  0
    2.1739    0.2476   -0.1947 H   0  0  0  0  0  0  0  0  0  0  0  0
    0.0000    0.0000    0.0000 C   0  0  0  0  0  0  0  0  0  0  0  0
    0.0068   -0.6007   -0.8160 H   0  0  0  0  0  0  0  0  0  0  0  0
    0.0062   -0.6002    0.8168 H   0  0  0  0  0  0  0  0  0  0  0  0
   -1.2808    0.7959    0.0000 N   0  0  0  0  0  4  0  0  0  0  0  0
   -1.6104    0.8753   -0.9369 H   0  0  0  0  0  0  0  0  0  0  0  0
   -1.9542    0.3214    0.5606 H   0  0  0  0  0  0  0  0  0  0  0  0
   -1.0977    1.6996    0.3767 H   0  0  0  0  0  0  0  0  0  0  0  0
   -1.6683   -1.2758   -3.8950 C   0  0  0  0  0  0  0  0  0  0  0  0
   -2.2860   -1.7384   -3.2117 H   0  0  0  0  0  0  0  0  0  0  0  0
   -0.7664   -1.7660   -3.8089 H   0  0  0  0  0  0  0  0  0  0  0  0
   -2.0648   -1.4576   -4.8939 H   0  0  0  0  0  0  0  0  0  0  0  0
   -1.4788    0.4779   -3.4941 S   0  0  0  0  0  0  0  0  0  0  0  0
   -0.0467    0.9012   -4.4783 C   0  0  0  0  0  0  0  0  0  0  0  0
   -0.1287    1.8447   -4.8043 H   0  0  0  0  0  0  0  0  0  0  0  0
    0.7824    0.8142   -3.9230 H   0  0  0  0  0  0  0  0  0  0  0  0
    0.0167    0.2836   -5.2643 H   0  0  0  0  0  0  0  0  0  0  0  0
  1  5  1  0
  5  8  1  0
  1  2  1  0
  1  3  1  0
  1  4  1  0
  5  6  1  0
  5  7  1  0
  8  9  1  0
  8 10  1  0
  8 11  1  0
 12 16  1  0
 16 17  1  0
 12 13  1  0
 12 14  1  0
 12 15  1  0
 17 18  1  0
 17 19  1  0
 17 20  1  0
M  CHG  1   8   1
M  END
>  <PDB_ID>  (1009) 
pdb4el8

>  <RESIDUE_NAME>  (1009) 
LYS   MET

>  <FRAG_NAME>  (1009) 
ETAM   MSM

>  <FRAG_ATOM_NUM>  (1009) 
fragi: 11  fragj: 9

>  <atom.prop.CHAIN_ID>  (1009) 
A A A A A A A A A A A Z Z Z Z Z Z Z Z Z

>  <atom.prop.IS_HEAVY_ATOM>  (1009) 
1 0 0 0 1 0 0 1 0 0 0 1 0 0 0 1 1 0 0 0

>  <DIFUSE_FUNC_ATOM>  (1009) 
n/a

>  <FINAL_SINGLE_POINT_ENERGY>  (1009) 
0

>  <NONCOV_INTER_ENERGY_QM>  (1009) 
0

>  <FF_Energy>  (1009) 
-5.69

>  <QM_Energy>  (1009) 
-15.08

>  <source>  (1009) 
ETAM_MSM

>  <Index>  (1009) 
6139

$$$$
ETAM-pdb3hsq-A-LYS-96:MSM-pdb3hsq-A-MET-66
     RDKit          3D

 20 18  0  0  0  0  0  0  0  0999 V2000
    1.2459    0.8508    0.0000 C   0  0  0  0  0  0  0  0  0  0  0  0
    1.3120    1.3317    0.8665 H   0  0  0  0  0  0  0  0  0  0  0  0
    1.2018    1.4941   -0.7554 H   0  0  0  0  0  0  0  0  0  0  0  0
    2.1397    0.2390   -0.1218 H   0  0  0  0  0  0  0  0  0  0  0  0
    0.0000    0.0000    0.0000 C   0  0  0  0  0  0  0  0  0  0  0  0
   -0.0052   -0.5839   -0.8160 H   0  0  0  0  0  0  0  0  0  0  0  0
   -0.0054   -0.5838    0.8167 H   0  0  0  0  0  0  0  0  0  0  0  0
   -1.2459    0.8362   -0.0000 N   0  0  0  0  0  4  0  0  0  0  0  0
   -1.5700    0.9381    0.9380 H   0  0  0  0  0  0  0  0  0  0  0  0
   -1.0365    1.7321   -0.3861 H   0  0  0  0  0  0  0  0  0  0  0  0
   -1.9421    0.3830   -0.5521 H   0  0  0  0  0  0  0  0  0  0  0  0
   -1.9447   -1.8375   -3.9502 C   0  0  0  0  0  0  0  0  0  0  0  0
   -1.8188   -0.8542   -4.2629 H   0  0  0  0  0  0  0  0  0  0  0  0
   -2.7209   -2.1846   -4.5489 H   0  0  0  0  0  0  0  0  0  0  0  0
   -1.0430   -2.3933   -4.2070 H   0  0  0  0  0  0  0  0  0  0  0  0
   -2.4268   -1.8856   -2.2040 S   0  0  0  0  0  0  0  0  0  0  0  0
   -3.7636   -0.6880   -2.2381 C   0  0  0  0  0  0  0  0  0  0  0  0
   -3.5018    0.1200   -1.7097 H   0  0  0  0  0  0  0  0  0  0  0  0
   -3.9493   -0.4215   -3.1841 H   0  0  0  0  0  0  0  0  0  0  0  0
   -4.5859   -1.0944   -1.8388 H   0  0  0  0  0  0  0  0  0  0  0  0
  1  5  1  0
  5  8  1  0
  1  2  1  0
  1  3  1  0
  1  4  1  0
  5  6  1  0
  5  7  1  0
  8  9  1  0
  8 10  1  0
  8 11  1  0
 12 16  1  0
 16 17  1  0
 12 13  1  0
 12 14  1  0
 12 15  1  0
 17 18  1  0
 17 19  1  0
 17 20  1  0
M  CHG  1   8   1
M  END
>  <PDB_ID>  (1010) 
pdb3hsq

>  <RESIDUE_NAME>  (1010) 
LYS   MET

>  <FRAG_NAME>  (1010) 
ETAM   MSM

>  <FRAG_ATOM_NUM>  (1010) 
fragi: 11  fragj: 9

>  <atom.prop.CHAIN_ID>  (1010) 
A A A A A A A A A A A Z Z Z Z Z Z Z Z Z

>  <atom.prop.IS_HEAVY_ATOM>  (1010) 
1 0 0 0 1 0 0 1 0 0 0 1 0 0 0 1 1 0 0 0

>  <DIFUSE_FUNC_ATOM>  (1010) 
n/a

>  <FINAL_SINGLE_POINT_ENERGY>  (1010) 
0

>  <NONCOV_INTER_ENERGY_QM>  (1010) 
0

>  <FF_Energy>  (1010) 
-3.74

>  <QM_Energy>  (1010) 
-9.47

>  <source>  (1010) 
ETAM_MSM

>  <Index>  (1010) 
6140

$$$$
ETAM-pdb3htk-C-LYS-246:MSM-pdb3htk-C-MET-250
     RDKit          3D

 20 18  0  0  0  0  0  0  0  0999 V2000
    1.2486    0.8663   -0.0000 C   0  0  0  0  0  0  0  0  0  0  0  0
    2.0267    0.2995   -0.2292 H   0  0  0  0  0  0  0  0  0  0  0  0
    1.3523    1.2708    0.8967 H   0  0  0  0  0  0  0  0  0  0  0  0
    1.1544    1.6595   -0.7418 H   0  0  0  0  0  0  0  0  0  0  0  0
    0.0000    0.0000    0.0000 C   0  0  0  0  0  0  0  0  0  0  0  0
    0.0126   -0.5880   -0.8160 H   0  0  0  0  0  0  0  0  0  0  0  0
    0.0121   -0.5882    0.8163 H   0  0  0  0  0  0  0  0  0  0  0  0
   -1.2486    0.8076    0.0000 N   0  0  0  0  0  4  0  0  0  0  0  0
   -1.6276    0.8327    0.9249 H   0  0  0  0  0  0  0  0  0  0  0  0
   -1.0423    1.7377   -0.3023 H   0  0  0  0  0  0  0  0  0  0  0  0
   -1.9124    0.3931   -0.6227 H   0  0  0  0  0  0  0  0  0  0  0  0
    2.6686   -0.3546    3.2863 C   0  0  0  0  0  0  0  0  0  0  0  0
    1.9149   -0.2319    3.9680 H   0  0  0  0  0  0  0  0  0  0  0  0
    2.7801    0.5541    2.8286 H   0  0  0  0  0  0  0  0  0  0  0  0
    3.5877   -0.5896    3.8231 H   0  0  0  0  0  0  0  0  0  0  0  0
    2.2259   -1.6278    2.0705 S   0  0  0  0  0  0  0  0  0  0  0  0
    1.3053   -2.7902    3.1187 C   0  0  0  0  0  0  0  0  0  0  0  0
    0.4925   -2.3332    3.4709 H   0  0  0  0  0  0  0  0  0  0  0  0
    1.0423   -3.5809    2.5705 H   0  0  0  0  0  0  0  0  0  0  0  0
    1.8899   -3.0778    3.8734 H   0  0  0  0  0  0  0  0  0  0  0  0
  1  5  1  0
  5  8  1  0
  1  2  1  0
  1  3  1  0
  1  4  1  0
  5  6  1  0
  5  7  1  0
  8  9  1  0
  8 10  1  0
  8 11  1  0
 12 16  1  0
 16 17  1  0
 12 13  1  0
 12 14  1  0
 12 15  1  0
 17 18  1  0
 17 19  1  0
 17 20  1  0
M  CHG  1   8   1
M  END
>  <PDB_ID>  (1011) 
pdb3htk

>  <RESIDUE_NAME>  (1011) 
LYS   MET

>  <FRAG_NAME>  (1011) 
ETAM   MSM

>  <FRAG_ATOM_NUM>  (1011) 
fragi: 11  fragj: 9

>  <atom.prop.CHAIN_ID>  (1011) 
A A A A A A A A A A A Z Z Z Z Z Z Z Z Z

>  <atom.prop.IS_HEAVY_ATOM>  (1011) 
1 0 0 0 1 0 0 1 0 0 0 1 0 0 0 1 1 0 0 0

>  <DIFUSE_FUNC_ATOM>  (1011) 
n/a

>  <FINAL_SINGLE_POINT_ENERGY>  (1011) 
0

>  <NONCOV_INTER_ENERGY_QM>  (1011) 
0

>  <FF_Energy>  (1011) 
-2.17

>  <QM_Energy>  (1011) 
-7.18

>  <source>  (1011) 
ETAM_MSM

>  <Index>  (1011) 
6141

$$$$
ETAM-pdb3hsq-C-LYS-96:MSM-pdb3hsq-C-MET-66
     RDKit          3D

 20 18  0  0  0  0  0  0  0  0999 V2000
    1.2273    0.8982    0.0000 C   0  0  0  0  0  0  0  0  0  0  0  0
    1.2855    1.3478    0.8912 H   0  0  0  0  0  0  0  0  0  0  0  0
    1.1104    1.5875   -0.7149 H   0  0  0  0  0  0  0  0  0  0  0  0
    2.1461    0.3411   -0.1827 H   0  0  0  0  0  0  0  0  0  0  0  0
    0.0000    0.0000    0.0000 C   0  0  0  0  0  0  0  0  0  0  0  0
    0.0099   -0.5643   -0.8164 H   0  0  0  0  0  0  0  0  0  0  0  0
    0.0091   -0.5645    0.8162 H   0  0  0  0  0  0  0  0  0  0  0  0
   -1.2273    0.8474    0.0000 N   0  0  0  0  0  4  0  0  0  0  0  0
   -1.5441    0.9687    0.9391 H   0  0  0  0  0  0  0  0  0  0  0  0
   -1.0140    1.7373   -0.4006 H   0  0  0  0  0  0  0  0  0  0  0  0
   -1.9380    0.3985   -0.5397 H   0  0  0  0  0  0  0  0  0  0  0  0
   -2.0494   -1.1365   -4.2352 C   0  0  0  0  0  0  0  0  0  0  0  0
   -1.9073   -0.1289   -4.3986 H   0  0  0  0  0  0  0  0  0  0  0  0
   -2.8330   -1.3940   -4.8532 H   0  0  0  0  0  0  0  0  0  0  0  0
   -1.1587   -1.6661   -4.5733 H   0  0  0  0  0  0  0  0  0  0  0  0
   -2.4755   -1.4463   -2.5051 S   0  0  0  0  0  0  0  0  0  0  0  0
   -3.9708   -0.4715   -2.3597 C   0  0  0  0  0  0  0  0  0  0  0  0
   -4.4868   -0.5186   -3.2164 H   0  0  0  0  0  0  0  0  0  0  0  0
   -4.5344   -0.8296   -1.6133 H   0  0  0  0  0  0  0  0  0  0  0  0
   -3.7333    0.4820   -2.1676 H   0  0  0  0  0  0  0  0  0  0  0  0
  1  5  1  0
  5  8  1  0
  1  2  1  0
  1  3  1  0
  1  4  1  0
  5  6  1  0
  5  7  1  0
  8  9  1  0
  8 10  1  0
  8 11  1  0
 12 16  1  0
 16 17  1  0
 12 13  1  0
 12 14  1  0
 12 15  1  0
 17 18  1  0
 17 19  1  0
 17 20  1  0
M  CHG  1   8   1
M  END
>  <PDB_ID>  (1012) 
pdb3hsq

>  <RESIDUE_NAME>  (1012) 
LYS   MET

>  <FRAG_NAME>  (1012) 
ETAM   MSM

>  <FRAG_ATOM_NUM>  (1012) 
fragi: 11  fragj: 9

>  <atom.prop.CHAIN_ID>  (1012) 
A A A A A A A A A A A Z Z Z Z Z Z Z Z Z

>  <atom.prop.IS_HEAVY_ATOM>  (1012) 
1 0 0 0 1 0 0 1 0 0 0 1 0 0 0 1 1 0 0 0

>  <DIFUSE_FUNC_ATOM>  (1012) 
n/a

>  <FINAL_SINGLE_POINT_ENERGY>  (1012) 
0

>  <NONCOV_INTER_ENERGY_QM>  (1012) 
0

>  <FF_Energy>  (1012) 
-4.58

>  <QM_Energy>  (1012) 
-11.74

>  <source>  (1012) 
ETAM_MSM

>  <Index>  (1012) 
6155

$$$$
ETAM-pdb3i2n-A-LYS-248:MSM-pdb3i2n-A-MET-305
     RDKit          3D

 20 18  0  0  0  0  0  0  0  0999 V2000
    1.2316    0.8820    0.0000 C   0  0  0  0  0  0  0  0  0  0  0  0
    1.2157    1.4557    0.8169 H   0  0  0  0  0  0  0  0  0  0  0  0
    1.2154    1.4557   -0.8164 H   0  0  0  0  0  0  0  0  0  0  0  0
    2.1541    0.3016    0.0001 H   0  0  0  0  0  0  0  0  0  0  0  0
    0.0000    0.0000    0.0000 C   0  0  0  0  0  0  0  0  0  0  0  0
    0.0096   -0.5746   -0.8167 H   0  0  0  0  0  0  0  0  0  0  0  0
    0.0099   -0.5746    0.8166 H   0  0  0  0  0  0  0  0  0  0  0  0
   -1.2316    0.8309   -0.0000 N   0  0  0  0  0  4  0  0  0  0  0  0
   -1.7571    0.6468    0.8308 H   0  0  0  0  0  0  0  0  0  0  0  0
   -0.9803    1.7988   -0.0282 H   0  0  0  0  0  0  0  0  0  0  0  0
   -1.7848    0.6058   -0.8019 H   0  0  0  0  0  0  0  0  0  0  0  0
    0.5506    5.9877    2.7900 C   0  0  0  0  0  0  0  0  0  0  0  0
   -0.0314    5.6375    3.5082 H   0  0  0  0  0  0  0  0  0  0  0  0
    0.4479    6.9651    2.6876 H   0  0  0  0  0  0  0  0  0  0  0  0
    1.5923    5.7254    2.9749 H   0  0  0  0  0  0  0  0  0  0  0  0
    0.2053    5.1574    1.2448 S   0  0  0  0  0  0  0  0  0  0  0  0
    0.6364    3.4288    1.6009 C   0  0  0  0  0  0  0  0  0  0  0  0
    1.4314    3.4113    2.2017 H   0  0  0  0  0  0  0  0  0  0  0  0
   -0.1389    2.9874    2.0471 H   0  0  0  0  0  0  0  0  0  0  0  0
    0.8469    2.9650    0.7438 H   0  0  0  0  0  0  0  0  0  0  0  0
  1  5  1  0
  5  8  1  0
  1  2  1  0
  1  3  1  0
  1  4  1  0
  5  6  1  0
  5  7  1  0
  8  9  1  0
  8 10  1  0
  8 11  1  0
 12 16  1  0
 16 17  1  0
 12 13  1  0
 12 14  1  0
 12 15  1  0
 17 18  1  0
 17 19  1  0
 17 20  1  0
M  CHG  1   8   1
M  END
>  <PDB_ID>  (1013) 
pdb3i2n

>  <RESIDUE_NAME>  (1013) 
LYS   MET

>  <FRAG_NAME>  (1013) 
ETAM   MSM

>  <FRAG_ATOM_NUM>  (1013) 
fragi: 11  fragj: 9

>  <atom.prop.CHAIN_ID>  (1013) 
A A A A A A A A A A A Z Z Z Z Z Z Z Z Z

>  <atom.prop.IS_HEAVY_ATOM>  (1013) 
1 0 0 0 1 0 0 1 0 0 0 1 0 0 0 1 1 0 0 0

>  <DIFUSE_FUNC_ATOM>  (1013) 
n/a

>  <FINAL_SINGLE_POINT_ENERGY>  (1013) 
0

>  <NONCOV_INTER_ENERGY_QM>  (1013) 
0

>  <FF_Energy>  (1013) 
27.36

>  <QM_Energy>  (1013) 
5.35

>  <source>  (1013) 
ETAM_MSM

>  <Index>  (1013) 
6187

$$$$
ETAM-pdb3i4j-A-LYS-107:MSM-pdb3i4j-A-MET-291
     RDKit          3D

 20 18  0  0  0  0  0  0  0  0999 V2000
    1.2499    0.8725   -0.0000 C   0  0  0  0  0  0  0  0  0  0  0  0
    1.2291    1.4515    0.8073 H   0  0  0  0  0  0  0  0  0  0  0  0
    1.2469    1.4252   -0.8251 H   0  0  0  0  0  0  0  0  0  0  0  0
    2.1544    0.2646    0.0206 H   0  0  0  0  0  0  0  0  0  0  0  0
    0.0000    0.0000    0.0000 C   0  0  0  0  0  0  0  0  0  0  0  0
    0.0095   -0.5810   -0.8167 H   0  0  0  0  0  0  0  0  0  0  0  0
    0.0089   -0.5813    0.8161 H   0  0  0  0  0  0  0  0  0  0  0  0
   -1.2499    0.8218    0.0000 N   0  0  0  0  0  4  0  0  0  0  0  0
   -1.0065    1.7892    0.0308 H   0  0  0  0  0  0  0  0  0  0  0  0
   -1.7675    0.6306   -0.8313 H   0  0  0  0  0  0  0  0  0  0  0  0
   -1.7972    0.5854    0.8005 H   0  0  0  0  0  0  0  0  0  0  0  0
    1.8279    5.5131    1.0042 C   0  0  0  0  0  0  0  0  0  0  0  0
    1.4014    5.0283    0.1972 H   0  0  0  0  0  0  0  0  0  0  0  0
    2.7742    5.7688    0.6789 H   0  0  0  0  0  0  0  0  0  0  0  0
    1.2698    6.4327    1.1799 H   0  0  0  0  0  0  0  0  0  0  0  0
    1.9403    4.3714    2.4399 S   0  0  0  0  0  0  0  0  0  0  0  0
    0.4964    3.3492    2.1693 C   0  0  0  0  0  0  0  0  0  0  0  0
    0.0260    3.6442    1.3363 H   0  0  0  0  0  0  0  0  0  0  0  0
    0.7752    2.3925    2.0709 H   0  0  0  0  0  0  0  0  0  0  0  0
   -0.1265    3.4336    2.9493 H   0  0  0  0  0  0  0  0  0  0  0  0
  1  5  1  0
  5  8  1  0
  1  2  1  0
  1  3  1  0
  1  4  1  0
  5  6  1  0
  5  7  1  0
  8  9  1  0
  8 10  1  0
  8 11  1  0
 12 16  1  0
 16 17  1  0
 12 13  1  0
 12 14  1  0
 12 15  1  0
 17 18  1  0
 17 19  1  0
 17 20  1  0
M  CHG  1   8   1
M  END
>  <PDB_ID>  (1014) 
pdb3i4j

>  <RESIDUE_NAME>  (1014) 
LYS   MET

>  <FRAG_NAME>  (1014) 
ETAM   MSM

>  <FRAG_ATOM_NUM>  (1014) 
fragi: 11  fragj: 9

>  <atom.prop.CHAIN_ID>  (1014) 
A A A A A A A A A A A Z Z Z Z Z Z Z Z Z

>  <atom.prop.IS_HEAVY_ATOM>  (1014) 
1 0 0 0 1 0 0 1 0 0 0 1 0 0 0 1 1 0 0 0

>  <DIFUSE_FUNC_ATOM>  (1014) 
n/a

>  <FINAL_SINGLE_POINT_ENERGY>  (1014) 
0

>  <NONCOV_INTER_ENERGY_QM>  (1014) 
0

>  <FF_Energy>  (1014) 
10.73

>  <QM_Energy>  (1014) 
2.45

>  <source>  (1014) 
ETAM_MSM

>  <Index>  (1014) 
6189

$$$$
ETAM-pdb3hyv-B-LYS-312:MSM-pdb3hyv-B-MET-274
     RDKit          3D

 20 18  0  0  0  0  0  0  0  0999 V2000
    1.2576    0.8632   -0.0000 C   0  0  0  0  0  0  0  0  0  0  0  0
    1.5298    1.0310    0.9417 H   0  0  0  0  0  0  0  0  0  0  0  0
    1.0559    1.7197   -0.4614 H   0  0  0  0  0  0  0  0  0  0  0  0
    2.0839    0.3761   -0.5175 H   0  0  0  0  0  0  0  0  0  0  0  0
    0.0000    0.0000    0.0000 C   0  0  0  0  0  0  0  0  0  0  0  0
    0.0077   -0.5864   -0.8160 H   0  0  0  0  0  0  0  0  0  0  0  0
    0.0070   -0.5864    0.8167 H   0  0  0  0  0  0  0  0  0  0  0  0
   -1.2576    0.8164   -0.0000 N   0  0  0  0  0  4  0  0  0  0  0  0
   -1.0280    1.7695    0.1882 H   0  0  0  0  0  0  0  0  0  0  0  0
   -1.6939    0.7435   -0.8943 H   0  0  0  0  0  0  0  0  0  0  0  0
   -1.8711    0.4703    0.7060 H   0  0  0  0  0  0  0  0  0  0  0  0
   -6.0365    2.5415   -1.7285 C   0  0  0  0  0  0  0  0  0  0  0  0
   -5.8209    3.2741   -2.4488 H   0  0  0  0  0  0  0  0  0  0  0  0
   -6.9052    2.9232   -1.2796 H   0  0  0  0  0  0  0  0  0  0  0  0
   -6.3292    1.6421   -2.2703 H   0  0  0  0  0  0  0  0  0  0  0  0
   -4.6948    2.4160   -0.5216 S   0  0  0  0  0  0  0  0  0  0  0  0
   -5.5158    1.9013    0.9766 C   0  0  0  0  0  0  0  0  0  0  0  0
   -6.0103    1.0451    0.8152 H   0  0  0  0  0  0  0  0  0  0  0  0
   -4.8397    1.7587    1.7023 H   0  0  0  0  0  0  0  0  0  0  0  0
   -6.1660    2.6072    1.2672 H   0  0  0  0  0  0  0  0  0  0  0  0
  1  5  1  0
  5  8  1  0
  1  2  1  0
  1  3  1  0
  1  4  1  0
  5  6  1  0
  5  7  1  0
  8  9  1  0
  8 10  1  0
  8 11  1  0
 12 16  1  0
 16 17  1  0
 12 13  1  0
 12 14  1  0
 12 15  1  0
 17 18  1  0
 17 19  1  0
 17 20  1  0
M  CHG  1   8   1
M  END
>  <PDB_ID>  (1015) 
pdb3hyv

>  <RESIDUE_NAME>  (1015) 
LYS   MET

>  <FRAG_NAME>  (1015) 
ETAM   MSM

>  <FRAG_ATOM_NUM>  (1015) 
fragi: 11  fragj: 9

>  <atom.prop.CHAIN_ID>  (1015) 
A A A A A A A A A A A Z Z Z Z Z Z Z Z Z

>  <atom.prop.IS_HEAVY_ATOM>  (1015) 
1 0 0 0 1 0 0 1 0 0 0 1 0 0 0 1 1 0 0 0

>  <DIFUSE_FUNC_ATOM>  (1015) 
n/a

>  <FINAL_SINGLE_POINT_ENERGY>  (1015) 
0

>  <NONCOV_INTER_ENERGY_QM>  (1015) 
0

>  <FF_Energy>  (1015) 
-4.27

>  <QM_Energy>  (1015) 
-9.5

>  <source>  (1015) 
ETAM_MSM

>  <Index>  (1015) 
6190

$$$$
ETAM-pdb3i6t-A-LYS-269:MSM-pdb3i6t-A-MET-298
     RDKit          3D

 20 18  0  0  0  0  0  0  0  0999 V2000
    1.2165    0.8619   -0.0000 C   0  0  0  0  0  0  0  0  0  0  0  0
    1.2755    1.3639    0.8582 H   0  0  0  0  0  0  0  0  0  0  0  0
    1.1821    1.4942   -0.7675 H   0  0  0  0  0  0  0  0  0  0  0  0
    2.1269    0.2709   -0.0988 H   0  0  0  0  0  0  0  0  0  0  0  0
    0.0000    0.0000    0.0000 C   0  0  0  0  0  0  0  0  0  0  0  0
    0.0113   -0.5901   -0.8164 H   0  0  0  0  0  0  0  0  0  0  0  0
    0.0113   -0.5900    0.8171 H   0  0  0  0  0  0  0  0  0  0  0  0
   -1.2165    0.8070   -0.0000 N   0  0  0  0  0  4  0  0  0  0  0  0
   -1.1117    1.5904    0.6192 H   0  0  0  0  0  0  0  0  0  0  0  0
   -1.4050    1.1488   -0.9261 H   0  0  0  0  0  0  0  0  0  0  0  0
   -1.9974    0.2549    0.3065 H   0  0  0  0  0  0  0  0  0  0  0  0
    1.0475    4.8365   -1.6639 C   0  0  0  0  0  0  0  0  0  0  0  0
    1.7353    4.0767   -1.8559 H   0  0  0  0  0  0  0  0  0  0  0  0
    1.6550    5.6433   -1.4026 H   0  0  0  0  0  0  0  0  0  0  0  0
    0.5741    5.0858   -2.6135 H   0  0  0  0  0  0  0  0  0  0  0  0
   -0.0490    4.3874   -0.3046 S   0  0  0  0  0  0  0  0  0  0  0  0
   -0.7534    6.0257   -0.0939 C   0  0  0  0  0  0  0  0  0  0  0  0
   -0.3150    6.4803    0.6825 H   0  0  0  0  0  0  0  0  0  0  0  0
   -0.6017    6.5628   -0.9242 H   0  0  0  0  0  0  0  0  0  0  0  0
   -1.7355    5.9473    0.0773 H   0  0  0  0  0  0  0  0  0  0  0  0
  1  5  1  0
  5  8  1  0
  1  2  1  0
  1  3  1  0
  1  4  1  0
  5  6  1  0
  5  7  1  0
  8  9  1  0
  8 10  1  0
  8 11  1  0
 12 16  1  0
 16 17  1  0
 12 13  1  0
 12 14  1  0
 12 15  1  0
 17 18  1  0
 17 19  1  0
 17 20  1  0
M  CHG  1   8   1
M  END
>  <PDB_ID>  (1016) 
pdb3i6t

>  <RESIDUE_NAME>  (1016) 
LYS   MET

>  <FRAG_NAME>  (1016) 
ETAM   MSM

>  <FRAG_ATOM_NUM>  (1016) 
fragi: 11  fragj: 9

>  <atom.prop.CHAIN_ID>  (1016) 
A A A A A A A A A A A Z Z Z Z Z Z Z Z Z

>  <atom.prop.IS_HEAVY_ATOM>  (1016) 
1 0 0 0 1 0 0 1 0 0 0 1 0 0 0 1 1 0 0 0

>  <DIFUSE_FUNC_ATOM>  (1016) 
n/a

>  <FINAL_SINGLE_POINT_ENERGY>  (1016) 
0

>  <NONCOV_INTER_ENERGY_QM>  (1016) 
0

>  <FF_Energy>  (1016) 
-5.46

>  <QM_Energy>  (1016) 
-11.39

>  <source>  (1016) 
ETAM_MSM

>  <Index>  (1016) 
6199

$$$$
ETAM-pdb3i6t-B-LYS-269:MSM-pdb3i6t-B-MET-298
     RDKit          3D

 20 18  0  0  0  0  0  0  0  0999 V2000
    1.2607    0.8700    0.0000 C   0  0  0  0  0  0  0  0  0  0  0  0
    1.3706    1.2656    0.8872 H   0  0  0  0  0  0  0  0  0  0  0  0
    1.1857    1.5334   -0.7133 H   0  0  0  0  0  0  0  0  0  0  0  0
    2.1146    0.2248   -0.2066 H   0  0  0  0  0  0  0  0  0  0  0  0
    0.0000    0.0000    0.0000 C   0  0  0  0  0  0  0  0  0  0  0  0
    0.0192   -0.5916   -0.8164 H   0  0  0  0  0  0  0  0  0  0  0  0
    0.0186   -0.5915    0.8166 H   0  0  0  0  0  0  0  0  0  0  0  0
   -1.2607    0.7932   -0.0000 N   0  0  0  0  0  4  0  0  0  0  0  0
   -1.9006    0.3970   -0.6581 H   0  0  0  0  0  0  0  0  0  0  0  0
   -1.6640    0.7732    0.9145 H   0  0  0  0  0  0  0  0  0  0  0  0
   -1.0570    1.7375   -0.2564 H   0  0  0  0  0  0  0  0  0  0  0  0
    1.0806    4.6885   -2.2038 C   0  0  0  0  0  0  0  0  0  0  0  0
    1.7252    3.9001   -2.4141 H   0  0  0  0  0  0  0  0  0  0  0  0
    1.7199    5.4983   -2.0768 H   0  0  0  0  0  0  0  0  0  0  0  0
    0.4914    4.8755   -3.1016 H   0  0  0  0  0  0  0  0  0  0  0  0
    0.1502    4.3618   -0.6674 S   0  0  0  0  0  0  0  0  0  0  0  0
   -0.7855    5.8855   -0.6338 C   0  0  0  0  0  0  0  0  0  0  0  0
   -0.5604    6.4015    0.1948 H   0  0  0  0  0  0  0  0  0  0  0  0
   -0.5590    6.4375   -1.4381 H   0  0  0  0  0  0  0  0  0  0  0  0
   -1.7653    5.6795   -0.6392 H   0  0  0  0  0  0  0  0  0  0  0  0
  1  5  1  0
  5  8  1  0
  1  2  1  0
  1  3  1  0
  1  4  1  0
  5  6  1  0
  5  7  1  0
  8  9  1  0
  8 10  1  0
  8 11  1  0
 12 16  1  0
 16 17  1  0
 12 13  1  0
 12 14  1  0
 12 15  1  0
 17 18  1  0
 17 19  1  0
 17 20  1  0
M  CHG  1   8   1
M  END
>  <PDB_ID>  (1017) 
pdb3i6t

>  <RESIDUE_NAME>  (1017) 
LYS   MET

>  <FRAG_NAME>  (1017) 
ETAM   MSM

>  <FRAG_ATOM_NUM>  (1017) 
fragi: 11  fragj: 9

>  <atom.prop.CHAIN_ID>  (1017) 
A A A A A A A A A A A Z Z Z Z Z Z Z Z Z

>  <atom.prop.IS_HEAVY_ATOM>  (1017) 
1 0 0 0 1 0 0 1 0 0 0 1 0 0 0 1 1 0 0 0

>  <DIFUSE_FUNC_ATOM>  (1017) 
n/a

>  <FINAL_SINGLE_POINT_ENERGY>  (1017) 
0

>  <NONCOV_INTER_ENERGY_QM>  (1017) 
0

>  <FF_Energy>  (1017) 
-5.17

>  <QM_Energy>  (1017) 
-12.62

>  <source>  (1017) 
ETAM_MSM

>  <Index>  (1017) 
6200

$$$$
ETAM-pdb3i6e-A-LYS-273:MSM-pdb3i6e-A-MET-302
     RDKit          3D

 20 18  0  0  0  0  0  0  0  0999 V2000
    1.2581    0.8674    0.0000 C   0  0  0  0  0  0  0  0  0  0  0  0
    1.2396    1.4516    0.8062 H   0  0  0  0  0  0  0  0  0  0  0  0
    1.2597    1.4213   -0.8272 H   0  0  0  0  0  0  0  0  0  0  0  0
    2.1692    0.2695    0.0231 H   0  0  0  0  0  0  0  0  0  0  0  0
    0.0000    0.0000    0.0000 C   0  0  0  0  0  0  0  0  0  0  0  0
    0.0128   -0.5879   -0.8158 H   0  0  0  0  0  0  0  0  0  0  0  0
    0.0122   -0.5882    0.8164 H   0  0  0  0  0  0  0  0  0  0  0  0
   -1.2581    0.8072    0.0000 N   0  0  0  0  0  4  0  0  0  0  0  0
   -1.9765    0.2946    0.4664 H   0  0  0  0  0  0  0  0  0  0  0  0
   -1.0954    1.6695    0.4763 H   0  0  0  0  0  0  0  0  0  0  0  0
   -1.5312    0.9890   -0.9429 H   0  0  0  0  0  0  0  0  0  0  0  0
    1.0408    4.8077   -1.7526 C   0  0  0  0  0  0  0  0  0  0  0  0
    1.7984    4.1265   -1.9102 H   0  0  0  0  0  0  0  0  0  0  0  0
    1.5232    5.6860   -1.5091 H   0  0  0  0  0  0  0  0  0  0  0  0
    0.5160    4.9571   -2.6962 H   0  0  0  0  0  0  0  0  0  0  0  0
   -0.0267    4.2698   -0.3932 S   0  0  0  0  0  0  0  0  0  0  0  0
    1.1467    4.2150    0.9399 C   0  0  0  0  0  0  0  0  0  0  0  0
    1.3877    5.1472    1.2229 H   0  0  0  0  0  0  0  0  0  0  0  0
    0.7526    3.7276    1.7244 H   0  0  0  0  0  0  0  0  0  0  0  0
    1.9793    3.7384    0.6447 H   0  0  0  0  0  0  0  0  0  0  0  0
  1  5  1  0
  5  8  1  0
  1  2  1  0
  1  3  1  0
  1  4  1  0
  5  6  1  0
  5  7  1  0
  8  9  1  0
  8 10  1  0
  8 11  1  0
 12 16  1  0
 16 17  1  0
 12 13  1  0
 12 14  1  0
 12 15  1  0
 17 18  1  0
 17 19  1  0
 17 20  1  0
M  CHG  1   8   1
M  END
>  <PDB_ID>  (1018) 
pdb3i6e

>  <RESIDUE_NAME>  (1018) 
LYS   MET

>  <FRAG_NAME>  (1018) 
ETAM   MSM

>  <FRAG_ATOM_NUM>  (1018) 
fragi: 11  fragj: 9

>  <atom.prop.CHAIN_ID>  (1018) 
A A A A A A A A A A A Z Z Z Z Z Z Z Z Z

>  <atom.prop.IS_HEAVY_ATOM>  (1018) 
1 0 0 0 1 0 0 1 0 0 0 1 0 0 0 1 1 0 0 0

>  <DIFUSE_FUNC_ATOM>  (1018) 
n/a

>  <FINAL_SINGLE_POINT_ENERGY>  (1018) 
0

>  <NONCOV_INTER_ENERGY_QM>  (1018) 
0

>  <FF_Energy>  (1018) 
-4.77

>  <QM_Energy>  (1018) 
-11.17

>  <source>  (1018) 
ETAM_MSM

>  <Index>  (1018) 
6202

$$$$
ETAM-pdb3i6e-C-LYS-273:MSM-pdb3i6e-C-MET-302
     RDKit          3D

 20 18  0  0  0  0  0  0  0  0999 V2000
    1.2355    0.8645   -0.0000 C   0  0  0  0  0  0  0  0  0  0  0  0
    1.2307    1.4369    0.8196 H   0  0  0  0  0  0  0  0  0  0  0  0
    1.2255    1.4443   -0.8136 H   0  0  0  0  0  0  0  0  0  0  0  0
    2.1529    0.2759   -0.0054 H   0  0  0  0  0  0  0  0  0  0  0  0
    0.0000    0.0000    0.0000 C   0  0  0  0  0  0  0  0  0  0  0  0
   -0.0002   -0.5782   -0.8164 H   0  0  0  0  0  0  0  0  0  0  0  0
   -0.0001   -0.5784    0.8168 H   0  0  0  0  0  0  0  0  0  0  0  0
   -1.2355    0.8377    0.0000 N   0  0  0  0  0  4  0  0  0  0  0  0
   -0.9793    1.8020    0.0371 H   0  0  0  0  0  0  0  0  0  0  0  0
   -1.7550    0.6590   -0.8346 H   0  0  0  0  0  0  0  0  0  0  0  0
   -1.7908    0.6060    0.7981 H   0  0  0  0  0  0  0  0  0  0  0  0
   -0.0798    5.0307   -2.7950 C   0  0  0  0  0  0  0  0  0  0  0  0
    0.4979    5.8924   -2.7173 H   0  0  0  0  0  0  0  0  0  0  0  0
   -1.0287    5.3962   -3.0144 H   0  0  0  0  0  0  0  0  0  0  0  0
    0.2711    4.4731   -3.6634 H   0  0  0  0  0  0  0  0  0  0  0  0
   -0.0927    4.1293   -1.2282 S   0  0  0  0  0  0  0  0  0  0  0  0
    1.5451    4.4128   -0.6812 C   0  0  0  0  0  0  0  0  0  0  0  0
    1.5597    5.0920    0.0636 H   0  0  0  0  0  0  0  0  0  0  0  0
    1.9585    3.5604   -0.3376 H   0  0  0  0  0  0  0  0  0  0  0  0
    2.1177    4.7592   -1.4349 H   0  0  0  0  0  0  0  0  0  0  0  0
  1  5  1  0
  5  8  1  0
  1  2  1  0
  1  3  1  0
  1  4  1  0
  5  6  1  0
  5  7  1  0
  8  9  1  0
  8 10  1  0
  8 11  1  0
 12 16  1  0
 16 17  1  0
 12 13  1  0
 12 14  1  0
 12 15  1  0
 17 18  1  0
 17 19  1  0
 17 20  1  0
M  CHG  1   8   1
M  END
>  <PDB_ID>  (1019) 
pdb3i6e

>  <RESIDUE_NAME>  (1019) 
LYS   MET

>  <FRAG_NAME>  (1019) 
ETAM   MSM

>  <FRAG_ATOM_NUM>  (1019) 
fragi: 11  fragj: 9

>  <atom.prop.CHAIN_ID>  (1019) 
A A A A A A A A A A A Z Z Z Z Z Z Z Z Z

>  <atom.prop.IS_HEAVY_ATOM>  (1019) 
1 0 0 0 1 0 0 1 0 0 0 1 0 0 0 1 1 0 0 0

>  <DIFUSE_FUNC_ATOM>  (1019) 
n/a

>  <FINAL_SINGLE_POINT_ENERGY>  (1019) 
0

>  <NONCOV_INTER_ENERGY_QM>  (1019) 
0

>  <FF_Energy>  (1019) 
-5.32

>  <QM_Energy>  (1019) 
-12.11

>  <source>  (1019) 
ETAM_MSM

>  <Index>  (1019) 
6204

$$$$
ETAM-pdb3i6e-E-LYS-273:MSM-pdb3i6e-E-MET-302
     RDKit          3D

 20 18  0  0  0  0  0  0  0  0999 V2000
    1.2591    0.8745    0.0000 C   0  0  0  0  0  0  0  0  0  0  0  0
    1.2609    1.4204    0.8293 H   0  0  0  0  0  0  0  0  0  0  0  0
    1.2353    1.4573   -0.8032 H   0  0  0  0  0  0  0  0  0  0  0  0
    2.1661    0.2706   -0.0277 H   0  0  0  0  0  0  0  0  0  0  0  0
    0.0000    0.0000    0.0000 C   0  0  0  0  0  0  0  0  0  0  0  0
    0.0154   -0.5860   -0.8163 H   0  0  0  0  0  0  0  0  0  0  0  0
    0.0154   -0.5856    0.8164 H   0  0  0  0  0  0  0  0  0  0  0  0
   -1.2591    0.8066   -0.0000 N   0  0  0  0  0  4  0  0  0  0  0  0
   -1.2710    1.3957    0.8063 H   0  0  0  0  0  0  0  0  0  0  0  0
   -1.2908    1.3648   -0.8267 H   0  0  0  0  0  0  0  0  0  0  0  0
   -2.0444    0.1897    0.0212 H   0  0  0  0  0  0  0  0  0  0  0  0
    0.9498    4.7456   -1.7289 C   0  0  0  0  0  0  0  0  0  0  0  0
    1.6302    3.9972   -1.8860 H   0  0  0  0  0  0  0  0  0  0  0  0
    1.5007    5.5790   -1.5045 H   0  0  0  0  0  0  0  0  0  0  0  0
    0.4189    4.9266   -2.6635 H   0  0  0  0  0  0  0  0  0  0  0  0
   -0.1628    4.3280   -0.3722 S   0  0  0  0  0  0  0  0  0  0  0  0
    0.9673    4.1602    0.9711 C   0  0  0  0  0  0  0  0  0  0  0  0
    0.5731    4.5500    1.8105 H   0  0  0  0  0  0  0  0  0  0  0  0
    1.1737    3.1901    1.1350 H   0  0  0  0  0  0  0  0  0  0  0  0
    1.8267    4.6410    0.7671 H   0  0  0  0  0  0  0  0  0  0  0  0
  1  5  1  0
  5  8  1  0
  1  2  1  0
  1  3  1  0
  1  4  1  0
  5  6  1  0
  5  7  1  0
  8  9  1  0
  8 10  1  0
  8 11  1  0
 12 16  1  0
 16 17  1  0
 12 13  1  0
 12 14  1  0
 12 15  1  0
 17 18  1  0
 17 19  1  0
 17 20  1  0
M  CHG  1   8   1
M  END
>  <PDB_ID>  (1020) 
pdb3i6e

>  <RESIDUE_NAME>  (1020) 
LYS   MET

>  <FRAG_NAME>  (1020) 
ETAM   MSM

>  <FRAG_ATOM_NUM>  (1020) 
fragi: 11  fragj: 9

>  <atom.prop.CHAIN_ID>  (1020) 
A A A A A A A A A A A Z Z Z Z Z Z Z Z Z

>  <atom.prop.IS_HEAVY_ATOM>  (1020) 
1 0 0 0 1 0 0 1 0 0 0 1 0 0 0 1 1 0 0 0

>  <DIFUSE_FUNC_ATOM>  (1020) 
n/a

>  <FINAL_SINGLE_POINT_ENERGY>  (1020) 
0

>  <NONCOV_INTER_ENERGY_QM>  (1020) 
0

>  <FF_Energy>  (1020) 
-1.29

>  <QM_Energy>  (1020) 
-9.13

>  <source>  (1020) 
ETAM_MSM

>  <Index>  (1020) 
6206

$$$$
ETAM-pdb3i6e-F-LYS-273:MSM-pdb3i6e-F-MET-302
     RDKit          3D

 20 18  0  0  0  0  0  0  0  0999 V2000
    1.2411    0.8774   -0.0000 C   0  0  0  0  0  0  0  0  0  0  0  0
    1.2590    1.4025    0.8456 H   0  0  0  0  0  0  0  0  0  0  0  0
    1.1973    1.4891   -0.7832 H   0  0  0  0  0  0  0  0  0  0  0  0
    2.1531    0.2840   -0.0660 H   0  0  0  0  0  0  0  0  0  0  0  0
    0.0000    0.0000    0.0000 C   0  0  0  0  0  0  0  0  0  0  0  0
    0.0121   -0.5801   -0.8167 H   0  0  0  0  0  0  0  0  0  0  0  0
    0.0120   -0.5805    0.8160 H   0  0  0  0  0  0  0  0  0  0  0  0
   -1.2411    0.8196   -0.0000 N   0  0  0  0  0  4  0  0  0  0  0  0
   -1.2117    1.4665    0.7619 H   0  0  0  0  0  0  0  0  0  0  0  0
   -1.3076    1.3212   -0.8620 H   0  0  0  0  0  0  0  0  0  0  0  0
   -2.0349    0.2201    0.0999 H   0  0  0  0  0  0  0  0  0  0  0  0
    0.9403    4.6828   -2.1105 C   0  0  0  0  0  0  0  0  0  0  0  0
    1.6180    3.9242   -2.2594 H   0  0  0  0  0  0  0  0  0  0  0  0
    1.5104    5.5221   -1.9412 H   0  0  0  0  0  0  0  0  0  0  0  0
    0.3747    4.8267   -3.0311 H   0  0  0  0  0  0  0  0  0  0  0  0
   -0.1008    4.3240   -0.6557 S   0  0  0  0  0  0  0  0  0  0  0  0
    1.0070    4.7415    0.6318 C   0  0  0  0  0  0  0  0  0  0  0  0
    0.5189    4.8223    1.5103 H   0  0  0  0  0  0  0  0  0  0  0  0
    1.7202    4.0362    0.7318 H   0  0  0  0  0  0  0  0  0  0  0  0
    1.4603    5.6221    0.4408 H   0  0  0  0  0  0  0  0  0  0  0  0
  1  5  1  0
  5  8  1  0
  1  2  1  0
  1  3  1  0
  1  4  1  0
  5  6  1  0
  5  7  1  0
  8  9  1  0
  8 10  1  0
  8 11  1  0
 12 16  1  0
 16 17  1  0
 12 13  1  0
 12 14  1  0
 12 15  1  0
 17 18  1  0
 17 19  1  0
 17 20  1  0
M  CHG  1   8   1
M  END
>  <PDB_ID>  (1021) 
pdb3i6e

>  <RESIDUE_NAME>  (1021) 
LYS   MET

>  <FRAG_NAME>  (1021) 
ETAM   MSM

>  <FRAG_ATOM_NUM>  (1021) 
fragi: 11  fragj: 9

>  <atom.prop.CHAIN_ID>  (1021) 
A A A A A A A A A A A Z Z Z Z Z Z Z Z Z

>  <atom.prop.IS_HEAVY_ATOM>  (1021) 
1 0 0 0 1 0 0 1 0 0 0 1 0 0 0 1 1 0 0 0

>  <DIFUSE_FUNC_ATOM>  (1021) 
n/a

>  <FINAL_SINGLE_POINT_ENERGY>  (1021) 
0

>  <NONCOV_INTER_ENERGY_QM>  (1021) 
0

>  <FF_Energy>  (1021) 
-5.26

>  <QM_Energy>  (1021) 
-11.29

>  <source>  (1021) 
ETAM_MSM

>  <Index>  (1021) 
6207

$$$$
ETAM-pdb4fas-A-LYS-281:MSM-pdb4fas-A-MET-276
     RDKit          3D

 20 18  0  0  0  0  0  0  0  0999 V2000
    1.2523    0.8493   -0.0000 C   0  0  0  0  0  0  0  0  0  0  0  0
    2.0233    0.3126    0.3279 H   0  0  0  0  0  0  0  0  0  0  0  0
    1.1169    1.6476    0.5778 H   0  0  0  0  0  0  0  0  0  0  0  0
    1.5179    1.2145   -0.9921 H   0  0  0  0  0  0  0  0  0  0  0  0
    0.0000    0.0000    0.0000 C   0  0  0  0  0  0  0  0  0  0  0  0
   -0.0461   -0.5488   -0.8160 H   0  0  0  0  0  0  0  0  0  0  0  0
   -0.0468   -0.5486    0.8161 H   0  0  0  0  0  0  0  0  0  0  0  0
   -1.2523    0.9395   -0.0000 N   0  0  0  0  0  4  0  0  0  0  0  0
   -1.0636    1.6787    0.6268 H   0  0  0  0  0  0  0  0  0  0  0  0
   -1.3721    1.2676   -0.9238 H   0  0  0  0  0  0  0  0  0  0  0  0
   -2.0238    0.3997    0.2966 H   0  0  0  0  0  0  0  0  0  0  0  0
   -3.5574   -1.2254   -3.7870 C   0  0  0  0  0  0  0  0  0  0  0  0
   -4.3876   -0.5999   -3.6965 H   0  0  0  0  0  0  0  0  0  0  0  0
   -3.9561   -2.0791   -4.2359 H   0  0  0  0  0  0  0  0  0  0  0  0
   -2.8205   -0.7685   -4.4473 H   0  0  0  0  0  0  0  0  0  0  0  0
   -2.9420   -1.6458   -2.1438 S   0  0  0  0  0  0  0  0  0  0  0  0
   -1.6183   -2.7482   -2.5349 C   0  0  0  0  0  0  0  0  0  0  0  0
   -1.9772   -3.5879   -2.9552 H   0  0  0  0  0  0  0  0  0  0  0  0
   -0.9808   -2.3128   -3.1789 H   0  0  0  0  0  0  0  0  0  0  0  0
   -1.1138   -2.9958   -1.7010 H   0  0  0  0  0  0  0  0  0  0  0  0
  1  5  1  0
  5  8  1  0
  1  2  1  0
  1  3  1  0
  1  4  1  0
  5  6  1  0
  5  7  1  0
  8  9  1  0
  8 10  1  0
  8 11  1  0
 12 16  1  0
 16 17  1  0
 12 13  1  0
 12 14  1  0
 12 15  1  0
 17 18  1  0
 17 19  1  0
 17 20  1  0
M  CHG  1   8   1
M  END
>  <PDB_ID>  (1022) 
pdb4fas

>  <RESIDUE_NAME>  (1022) 
LYS   MET

>  <FRAG_NAME>  (1022) 
ETAM   MSM

>  <FRAG_ATOM_NUM>  (1022) 
fragi: 11  fragj: 9

>  <atom.prop.CHAIN_ID>  (1022) 
A A A A A A A A A A A Z Z Z Z Z Z Z Z Z

>  <atom.prop.IS_HEAVY_ATOM>  (1022) 
1 0 0 0 1 0 0 1 0 0 0 1 0 0 0 1 1 0 0 0

>  <DIFUSE_FUNC_ATOM>  (1022) 
n/a

>  <FINAL_SINGLE_POINT_ENERGY>  (1022) 
0

>  <NONCOV_INTER_ENERGY_QM>  (1022) 
0

>  <FF_Energy>  (1022) 
-4.82

>  <QM_Energy>  (1022) 
-11.11

>  <source>  (1022) 
ETAM_MSM

>  <Index>  (1022) 
6230

$$$$
ETAM-pdb4fas-B-LYS-281:MSM-pdb4fas-B-MET-276
     RDKit          3D

 20 18  0  0  0  0  0  0  0  0999 V2000
    1.3061    0.7371   -0.0000 C   0  0  0  0  0  0  0  0  0  0  0  0
    2.0586    0.0772    0.1130 H   0  0  0  0  0  0  0  0  0  0  0  0
    1.3253    1.3775    0.7766 H   0  0  0  0  0  0  0  0  0  0  0  0
    1.4986    1.3087   -0.9079 H   0  0  0  0  0  0  0  0  0  0  0  0
    0.0000    0.0000    0.0000 C   0  0  0  0  0  0  0  0  0  0  0  0
   -0.0592   -0.6113   -0.8163 H   0  0  0  0  0  0  0  0  0  0  0  0
   -0.0604   -0.6117    0.8166 H   0  0  0  0  0  0  0  0  0  0  0  0
   -1.3061    0.8632    0.0000 N   0  0  0  0  0  4  0  0  0  0  0  0
   -1.9617    0.4038    0.5782 H   0  0  0  0  0  0  0  0  0  0  0  0
   -1.0685    1.7533    0.3565 H   0  0  0  0  0  0  0  0  0  0  0  0
   -1.6216    0.9176   -0.9341 H   0  0  0  0  0  0  0  0  0  0  0  0
   -3.4156   -0.7352   -3.9358 C   0  0  0  0  0  0  0  0  0  0  0  0
   -4.1575   -0.0661   -3.7216 H   0  0  0  0  0  0  0  0  0  0  0  0
   -3.8503   -1.4700   -4.4966 H   0  0  0  0  0  0  0  0  0  0  0  0
   -2.7149   -0.2189   -4.5921 H   0  0  0  0  0  0  0  0  0  0  0  0
   -2.6544   -1.4006   -2.4280 S   0  0  0  0  0  0  0  0  0  0  0  0
   -1.4478   -2.5440   -3.1582 C   0  0  0  0  0  0  0  0  0  0  0  0
   -1.8821   -3.0359   -3.9085 H   0  0  0  0  0  0  0  0  0  0  0  0
   -0.6707   -2.0202   -3.4981 H   0  0  0  0  0  0  0  0  0  0  0  0
   -1.1466   -3.1869   -2.4578 H   0  0  0  0  0  0  0  0  0  0  0  0
  1  5  1  0
  5  8  1  0
  1  2  1  0
  1  3  1  0
  1  4  1  0
  5  6  1  0
  5  7  1  0
  8  9  1  0
  8 10  1  0
  8 11  1  0
 12 16  1  0
 16 17  1  0
 12 13  1  0
 12 14  1  0
 12 15  1  0
 17 18  1  0
 17 19  1  0
 17 20  1  0
M  CHG  1   8   1
M  END
>  <PDB_ID>  (1023) 
pdb4fas

>  <RESIDUE_NAME>  (1023) 
LYS   MET

>  <FRAG_NAME>  (1023) 
ETAM   MSM

>  <FRAG_ATOM_NUM>  (1023) 
fragi: 11  fragj: 9

>  <atom.prop.CHAIN_ID>  (1023) 
A A A A A A A A A A A Z Z Z Z Z Z Z Z Z

>  <atom.prop.IS_HEAVY_ATOM>  (1023) 
1 0 0 0 1 0 0 1 0 0 0 1 0 0 0 1 1 0 0 0

>  <DIFUSE_FUNC_ATOM>  (1023) 
n/a

>  <FINAL_SINGLE_POINT_ENERGY>  (1023) 
0

>  <NONCOV_INTER_ENERGY_QM>  (1023) 
0

>  <FF_Energy>  (1023) 
-5.34

>  <QM_Energy>  (1023) 
-13.09

>  <source>  (1023) 
ETAM_MSM

>  <Index>  (1023) 
6231

$$$$
ETAM-pdb4fas-C-LYS-281:MSM-pdb4fas-C-MET-276
     RDKit          3D

 20 18  0  0  0  0  0  0  0  0999 V2000
    1.3029    0.9382    0.0000 C   0  0  0  0  0  0  0  0  0  0  0  0
    2.0309    0.3985    0.4255 H   0  0  0  0  0  0  0  0  0  0  0  0
    1.0809    1.7168    0.5894 H   0  0  0  0  0  0  0  0  0  0  0  0
    1.6131    1.2835   -0.9862 H   0  0  0  0  0  0  0  0  0  0  0  0
    0.0000    0.0000    0.0000 C   0  0  0  0  0  0  0  0  0  0  0  0
    0.0275   -0.5543   -0.8162 H   0  0  0  0  0  0  0  0  0  0  0  0
    0.0269   -0.5544    0.8162 H   0  0  0  0  0  0  0  0  0  0  0  0
   -1.3029    0.8373    0.0000 N   0  0  0  0  0  4  0  0  0  0  0  0
   -2.0281    0.2659   -0.3580 H   0  0  0  0  0  0  0  0  0  0  0  0
   -1.4887    1.1067    0.9343 H   0  0  0  0  0  0  0  0  0  0  0  0
   -1.1530    1.6278   -0.5774 H   0  0  0  0  0  0  0  0  0  0  0  0
   -3.2880   -1.7807   -3.6179 C   0  0  0  0  0  0  0  0  0  0  0  0
   -4.1815   -1.2651   -3.5538 H   0  0  0  0  0  0  0  0  0  0  0  0
   -3.5426   -2.6798   -4.0609 H   0  0  0  0  0  0  0  0  0  0  0  0
   -2.6536   -1.2409   -4.3210 H   0  0  0  0  0  0  0  0  0  0  0  0
   -2.5651   -2.0363   -1.9937 S   0  0  0  0  0  0  0  0  0  0  0  0
   -1.1658   -3.1073   -2.3931 C   0  0  0  0  0  0  0  0  0  0  0  0
   -1.5030   -4.0254   -2.5953 H   0  0  0  0  0  0  0  0  0  0  0  0
   -0.6880   -2.7401   -3.1893 H   0  0  0  0  0  0  0  0  0  0  0  0
   -0.5441   -3.1402   -1.6125 H   0  0  0  0  0  0  0  0  0  0  0  0
  1  5  1  0
  5  8  1  0
  1  2  1  0
  1  3  1  0
  1  4  1  0
  5  6  1  0
  5  7  1  0
  8  9  1  0
  8 10  1  0
  8 11  1  0
 12 16  1  0
 16 17  1  0
 12 13  1  0
 12 14  1  0
 12 15  1  0
 17 18  1  0
 17 19  1  0
 17 20  1  0
M  CHG  1   8   1
M  END
>  <PDB_ID>  (1024) 
pdb4fas

>  <RESIDUE_NAME>  (1024) 
LYS   MET

>  <FRAG_NAME>  (1024) 
ETAM   MSM

>  <FRAG_ATOM_NUM>  (1024) 
fragi: 11  fragj: 9

>  <atom.prop.CHAIN_ID>  (1024) 
A A A A A A A A A A A Z Z Z Z Z Z Z Z Z

>  <atom.prop.IS_HEAVY_ATOM>  (1024) 
1 0 0 0 1 0 0 1 0 0 0 1 0 0 0 1 1 0 0 0

>  <DIFUSE_FUNC_ATOM>  (1024) 
n/a

>  <FINAL_SINGLE_POINT_ENERGY>  (1024) 
0

>  <NONCOV_INTER_ENERGY_QM>  (1024) 
0

>  <FF_Energy>  (1024) 
-5.19

>  <QM_Energy>  (1024) 
-12.92

>  <source>  (1024) 
ETAM_MSM

>  <Index>  (1024) 
6234

$$$$
ETAM-pdb3iar-A-LYS-23:MSM-pdb3iar-A-MET-89
     RDKit          3D

 20 18  0  0  0  0  0  0  0  0999 V2000
    1.2151    0.8390   -0.0000 C   0  0  0  0  0  0  0  0  0  0  0  0
    1.3031    1.3107    0.8789 H   0  0  0  0  0  0  0  0  0  0  0  0
    1.1621    1.5152   -0.7357 H   0  0  0  0  0  0  0  0  0  0  0  0
    2.1197    0.2504   -0.1534 H   0  0  0  0  0  0  0  0  0  0  0  0
    0.0000    0.0000    0.0000 C   0  0  0  0  0  0  0  0  0  0  0  0
   -0.0242   -0.5749   -0.8161 H   0  0  0  0  0  0  0  0  0  0  0  0
   -0.0251   -0.5746    0.8164 H   0  0  0  0  0  0  0  0  0  0  0  0
   -1.2151    0.8735   -0.0000 N   0  0  0  0  0  4  0  0  0  0  0  0
   -1.2956    1.3227   -0.8876 H   0  0  0  0  0  0  0  0  0  0  0  0
   -2.0227    0.3115    0.1690 H   0  0  0  0  0  0  0  0  0  0  0  0
   -1.1251    1.5606    0.7194 H   0  0  0  0  0  0  0  0  0  0  0  0
   -0.2471   -3.4254   -0.7126 C   0  0  0  0  0  0  0  0  0  0  0  0
   -0.5424   -3.2484    0.2620 H   0  0  0  0  0  0  0  0  0  0  0  0
    0.6935   -3.0009   -0.7756 H   0  0  0  0  0  0  0  0  0  0  0  0
   -0.1319   -4.5028   -0.8311 H   0  0  0  0  0  0  0  0  0  0  0  0
   -1.3955   -2.6121   -1.8878 S   0  0  0  0  0  0  0  0  0  0  0  0
   -0.6008   -3.0106   -3.4580 C   0  0  0  0  0  0  0  0  0  0  0  0
    0.3773   -2.8191   -3.3898 H   0  0  0  0  0  0  0  0  0  0  0  0
   -0.7405   -3.9784   -3.6612 H   0  0  0  0  0  0  0  0  0  0  0  0
   -1.0037   -2.4527   -4.1813 H   0  0  0  0  0  0  0  0  0  0  0  0
  1  5  1  0
  5  8  1  0
  1  2  1  0
  1  3  1  0
  1  4  1  0
  5  6  1  0
  5  7  1  0
  8  9  1  0
  8 10  1  0
  8 11  1  0
 12 16  1  0
 16 17  1  0
 12 13  1  0
 12 14  1  0
 12 15  1  0
 17 18  1  0
 17 19  1  0
 17 20  1  0
M  CHG  1   8   1
M  END
>  <PDB_ID>  (1025) 
pdb3iar

>  <RESIDUE_NAME>  (1025) 
LYS   MET

>  <FRAG_NAME>  (1025) 
ETAM   MSM

>  <FRAG_ATOM_NUM>  (1025) 
fragi: 11  fragj: 9

>  <atom.prop.CHAIN_ID>  (1025) 
A A A A A A A A A A A Z Z Z Z Z Z Z Z Z

>  <atom.prop.IS_HEAVY_ATOM>  (1025) 
1 0 0 0 1 0 0 1 0 0 0 1 0 0 0 1 1 0 0 0

>  <DIFUSE_FUNC_ATOM>  (1025) 
n/a

>  <FINAL_SINGLE_POINT_ENERGY>  (1025) 
0

>  <NONCOV_INTER_ENERGY_QM>  (1025) 
0

>  <FF_Energy>  (1025) 
-3.13

>  <QM_Energy>  (1025) 
-8.62

>  <source>  (1025) 
ETAM_MSM

>  <Index>  (1025) 
6235

$$$$
ETAM-pdb4fd4-A-LYS-215:MSM-pdb4fd4-A-MET-152
     RDKit          3D

 20 18  0  0  0  0  0  0  0  0999 V2000
    1.2555    0.8671    0.0000 C   0  0  0  0  0  0  0  0  0  0  0  0
    1.1359    1.6000    0.6533 H   0  0  0  0  0  0  0  0  0  0  0  0
    1.3985    1.2186   -0.9125 H   0  0  0  0  0  0  0  0  0  0  0  0
    2.1254    0.2777    0.2899 H   0  0  0  0  0  0  0  0  0  0  0  0
    0.0000    0.0000    0.0000 C   0  0  0  0  0  0  0  0  0  0  0  0
    0.0105   -0.5853   -0.8165 H   0  0  0  0  0  0  0  0  0  0  0  0
    0.0102   -0.5856    0.8165 H   0  0  0  0  0  0  0  0  0  0  0  0
   -1.2555    0.8134   -0.0000 N   0  0  0  0  0  4  0  0  0  0  0  0
   -1.0339    1.7583    0.2335 H   0  0  0  0  0  0  0  0  0  0  0  0
   -1.6691    0.7779   -0.9075 H   0  0  0  0  0  0  0  0  0  0  0  0
   -1.8889    0.4384    0.6745 H   0  0  0  0  0  0  0  0  0  0  0  0
   -0.3651   -1.0933   -4.7059 C   0  0  0  0  0  0  0  0  0  0  0  0
    0.4522   -1.3803   -4.1674 H   0  0  0  0  0  0  0  0  0  0  0  0
   -0.0391   -0.9379   -5.6601 H   0  0  0  0  0  0  0  0  0  0  0  0
   -1.0893   -1.9079   -4.7087 H   0  0  0  0  0  0  0  0  0  0  0  0
   -1.0716    0.4336   -4.0207 S   0  0  0  0  0  0  0  0  0  0  0  0
    0.4214    1.4052   -3.7855 C   0  0  0  0  0  0  0  0  0  0  0  0
    0.6158    1.4857   -2.8073 H   0  0  0  0  0  0  0  0  0  0  0  0
    1.1877    0.9535   -4.2421 H   0  0  0  0  0  0  0  0  0  0  0  0
    0.2901    2.3165   -4.1761 H   0  0  0  0  0  0  0  0  0  0  0  0
  1  5  1  0
  5  8  1  0
  1  2  1  0
  1  3  1  0
  1  4  1  0
  5  6  1  0
  5  7  1  0
  8  9  1  0
  8 10  1  0
  8 11  1  0
 12 16  1  0
 16 17  1  0
 12 13  1  0
 12 14  1  0
 12 15  1  0
 17 18  1  0
 17 19  1  0
 17 20  1  0
M  CHG  1   8   1
M  END
>  <PDB_ID>  (1026) 
pdb4fd4

>  <RESIDUE_NAME>  (1026) 
LYS   MET

>  <FRAG_NAME>  (1026) 
ETAM   MSM

>  <FRAG_ATOM_NUM>  (1026) 
fragi: 11  fragj: 9

>  <atom.prop.CHAIN_ID>  (1026) 
A A A A A A A A A A A Z Z Z Z Z Z Z Z Z

>  <atom.prop.IS_HEAVY_ATOM>  (1026) 
1 0 0 0 1 0 0 1 0 0 0 1 0 0 0 1 1 0 0 0

>  <DIFUSE_FUNC_ATOM>  (1026) 
n/a

>  <FINAL_SINGLE_POINT_ENERGY>  (1026) 
0

>  <NONCOV_INTER_ENERGY_QM>  (1026) 
0

>  <FF_Energy>  (1026) 
-3.4

>  <QM_Energy>  (1026) 
-9.07

>  <source>  (1026) 
ETAM_MSM

>  <Index>  (1026) 
6255

$$$$
ETAM-pdb3ifv-C-LYS-143:MSM-pdb3ifv-B-MET-79
     RDKit          3D

 20 18  0  0  0  0  0  0  0  0999 V2000
    1.2469    0.9095    0.0000 C   0  0  0  0  0  0  0  0  0  0  0  0
    1.2894    1.3745   -0.8825 H   0  0  0  0  0  0  0  0  0  0  0  0
    2.0513    0.3304    0.1158 H   0  0  0  0  0  0  0  0  0  0  0  0
    1.2298    1.6565    0.7936 H   0  0  0  0  0  0  0  0  0  0  0  0
    0.0000    0.0000    0.0000 C   0  0  0  0  0  0  0  0  0  0  0  0
    0.0075   -0.5555   -0.8162 H   0  0  0  0  0  0  0  0  0  0  0  0
    0.0077   -0.5552    0.8165 H   0  0  0  0  0  0  0  0  0  0  0  0
   -1.2469    0.8635   -0.0000 N   0  0  0  0  0  4  0  0  0  0  0  0
   -1.9670    0.3821   -0.4903 H   0  0  0  0  0  0  0  0  0  0  0  0
   -1.5199    1.0260    0.9428 H   0  0  0  0  0  0  0  0  0  0  0  0
   -1.0365    1.7250   -0.4521 H   0  0  0  0  0  0  0  0  0  0  0  0
    0.1899   -1.7470    4.7949 C   0  0  0  0  0  0  0  0  0  0  0  0
   -0.7931   -1.9264    4.5778 H   0  0  0  0  0  0  0  0  0  0  0  0
    0.2188   -1.4998    5.7867 H   0  0  0  0  0  0  0  0  0  0  0  0
    0.7673   -2.6570    4.6319 H   0  0  0  0  0  0  0  0  0  0  0  0
    0.8217   -0.4100    3.7937 S   0  0  0  0  0  0  0  0  0  0  0  0
    2.6238   -0.5132    3.9168 C   0  0  0  0  0  0  0  0  0  0  0  0
    2.8761   -1.4113    4.2713 H   0  0  0  0  0  0  0  0  0  0  0  0
    3.0211   -0.3830    3.0110 H   0  0  0  0  0  0  0  0  0  0  0  0
    2.9506    0.1991    4.5354 H   0  0  0  0  0  0  0  0  0  0  0  0
  1  5  1  0
  5  8  1  0
  1  2  1  0
  1  3  1  0
  1  4  1  0
  5  6  1  0
  5  7  1  0
  8  9  1  0
  8 10  1  0
  8 11  1  0
 12 16  1  0
 16 17  1  0
 12 13  1  0
 12 14  1  0
 12 15  1  0
 17 18  1  0
 17 19  1  0
 17 20  1  0
M  CHG  1   8   1
M  END
>  <PDB_ID>  (1027) 
pdb3ifv

>  <RESIDUE_NAME>  (1027) 
LYS   MET

>  <FRAG_NAME>  (1027) 
ETAM   MSM

>  <FRAG_ATOM_NUM>  (1027) 
fragi: 11  fragj: 9

>  <atom.prop.CHAIN_ID>  (1027) 
A A A A A A A A A A A Z Z Z Z Z Z Z Z Z

>  <atom.prop.IS_HEAVY_ATOM>  (1027) 
1 0 0 0 1 0 0 1 0 0 0 1 0 0 0 1 1 0 0 0

>  <DIFUSE_FUNC_ATOM>  (1027) 
n/a

>  <FINAL_SINGLE_POINT_ENERGY>  (1027) 
0

>  <NONCOV_INTER_ENERGY_QM>  (1027) 
0

>  <FF_Energy>  (1027) 
-4.21

>  <QM_Energy>  (1027) 
-9.35

>  <source>  (1027) 
ETAM_MSM

>  <Index>  (1027) 
6280

$$$$
ETAM-pdb4fhc-A-LYS-27:MSM-pdb4fhc-A-MET-31
     RDKit          3D

 20 18  0  0  0  0  0  0  0  0999 V2000
    1.2492    0.8689    0.0000 C   0  0  0  0  0  0  0  0  0  0  0  0
    2.0486    0.2768    0.0438 H   0  0  0  0  0  0  0  0  0  0  0  0
    1.2196    1.4672    0.7953 H   0  0  0  0  0  0  0  0  0  0  0  0
    1.3172    1.4823   -0.8985 H   0  0  0  0  0  0  0  0  0  0  0  0
    0.0000    0.0000    0.0000 C   0  0  0  0  0  0  0  0  0  0  0  0
    0.0110   -0.5854   -0.8164 H   0  0  0  0  0  0  0  0  0  0  0  0
    0.0106   -0.5857    0.8163 H   0  0  0  0  0  0  0  0  0  0  0  0
   -1.2492    0.8131    0.0000 N   0  0  0  0  0  4  0  0  0  0  0  0
   -1.2075    1.4826   -0.7404 H   0  0  0  0  0  0  0  0  0  0  0  0
   -2.0356    0.2114   -0.1352 H   0  0  0  0  0  0  0  0  0  0  0  0
   -1.3352    1.2865    0.8757 H   0  0  0  0  0  0  0  0  0  0  0  0
   -2.3211    4.0435   -3.3439 C   0  0  0  0  0  0  0  0  0  0  0  0
   -2.9884    3.5987   -3.9876 H   0  0  0  0  0  0  0  0  0  0  0  0
   -1.3993    3.9136   -3.7828 H   0  0  0  0  0  0  0  0  0  0  0  0
   -2.5381    5.1111   -3.3100 H   0  0  0  0  0  0  0  0  0  0  0  0
   -2.3728    3.2510   -1.7233 S   0  0  0  0  0  0  0  0  0  0  0  0
   -4.1361    3.2859   -1.4031 C   0  0  0  0  0  0  0  0  0  0  0  0
   -4.3197    2.9006   -0.4974 H   0  0  0  0  0  0  0  0  0  0  0  0
   -4.4635    4.2310   -1.4351 H   0  0  0  0  0  0  0  0  0  0  0  0
   -4.6132    2.7452   -2.0973 H   0  0  0  0  0  0  0  0  0  0  0  0
  1  5  1  0
  5  8  1  0
  1  2  1  0
  1  3  1  0
  1  4  1  0
  5  6  1  0
  5  7  1  0
  8  9  1  0
  8 10  1  0
  8 11  1  0
 12 16  1  0
 16 17  1  0
 12 13  1  0
 12 14  1  0
 12 15  1  0
 17 18  1  0
 17 19  1  0
 17 20  1  0
M  CHG  1   8   1
M  END
>  <PDB_ID>  (1028) 
pdb4fhc

>  <RESIDUE_NAME>  (1028) 
LYS   MET

>  <FRAG_NAME>  (1028) 
ETAM   MSM

>  <FRAG_ATOM_NUM>  (1028) 
fragi: 11  fragj: 9

>  <atom.prop.CHAIN_ID>  (1028) 
A A A A A A A A A A A Z Z Z Z Z Z Z Z Z

>  <atom.prop.IS_HEAVY_ATOM>  (1028) 
1 0 0 0 1 0 0 1 0 0 0 1 0 0 0 1 1 0 0 0

>  <DIFUSE_FUNC_ATOM>  (1028) 
n/a

>  <FINAL_SINGLE_POINT_ENERGY>  (1028) 
0

>  <NONCOV_INTER_ENERGY_QM>  (1028) 
0

>  <FF_Energy>  (1028) 
-5.24

>  <QM_Energy>  (1028) 
-14.09

>  <source>  (1028) 
ETAM_MSM

>  <Index>  (1028) 
6288

$$$$
ETAM-pdb4ffv-A-LYS-371:MSM-pdb4ffv-A-MET-323
     RDKit          3D

 20 18  0  0  0  0  0  0  0  0999 V2000
    1.2404    0.8773    0.0000 C   0  0  0  0  0  0  0  0  0  0  0  0
    1.1498    1.5568    0.7261 H   0  0  0  0  0  0  0  0  0  0  0  0
    1.3063    1.3343   -0.8844 H   0  0  0  0  0  0  0  0  0  0  0  0
    2.1524    0.3047    0.1686 H   0  0  0  0  0  0  0  0  0  0  0  0
    0.0000    0.0000    0.0000 C   0  0  0  0  0  0  0  0  0  0  0  0
    0.0098   -0.5783   -0.8160 H   0  0  0  0  0  0  0  0  0  0  0  0
    0.0095   -0.5778    0.8167 H   0  0  0  0  0  0  0  0  0  0  0  0
   -1.2404    0.8262    0.0000 N   0  0  0  0  0  4  0  0  0  0  0  0
   -1.6531    0.8029   -0.9093 H   0  0  0  0  0  0  0  0  0  0  0  0
   -1.8834    0.4573    0.6699 H   0  0  0  0  0  0  0  0  0  0  0  0
   -1.0098    1.7688    0.2401 H   0  0  0  0  0  0  0  0  0  0  0  0
   -4.7647   -2.5585    0.0768 C   0  0  0  0  0  0  0  0  0  0  0  0
   -5.1420   -3.3331    0.6183 H   0  0  0  0  0  0  0  0  0  0  0  0
   -5.2385   -2.5720   -0.8235 H   0  0  0  0  0  0  0  0  0  0  0  0
   -5.0081   -1.6259    0.5857 H   0  0  0  0  0  0  0  0  0  0  0  0
   -2.9847   -2.7288   -0.1322 S   0  0  0  0  0  0  0  0  0  0  0  0
   -2.8331   -4.4853   -0.4457 C   0  0  0  0  0  0  0  0  0  0  0  0
   -1.8692   -4.7217   -0.5751 H   0  0  0  0  0  0  0  0  0  0  0  0
   -3.1988   -4.9988    0.3328 H   0  0  0  0  0  0  0  0  0  0  0  0
   -3.3463   -4.7246   -1.2717 H   0  0  0  0  0  0  0  0  0  0  0  0
  1  5  1  0
  5  8  1  0
  1  2  1  0
  1  3  1  0
  1  4  1  0
  5  6  1  0
  5  7  1  0
  8  9  1  0
  8 10  1  0
  8 11  1  0
 12 16  1  0
 16 17  1  0
 12 13  1  0
 12 14  1  0
 12 15  1  0
 17 18  1  0
 17 19  1  0
 17 20  1  0
M  CHG  1   8   1
M  END
>  <PDB_ID>  (1029) 
pdb4ffv

>  <RESIDUE_NAME>  (1029) 
LYS   MET

>  <FRAG_NAME>  (1029) 
ETAM   MSM

>  <FRAG_ATOM_NUM>  (1029) 
fragi: 11  fragj: 9

>  <atom.prop.CHAIN_ID>  (1029) 
A A A A A A A A A A A Z Z Z Z Z Z Z Z Z

>  <atom.prop.IS_HEAVY_ATOM>  (1029) 
1 0 0 0 1 0 0 1 0 0 0 1 0 0 0 1 1 0 0 0

>  <DIFUSE_FUNC_ATOM>  (1029) 
n/a

>  <FINAL_SINGLE_POINT_ENERGY>  (1029) 
0

>  <NONCOV_INTER_ENERGY_QM>  (1029) 
0

>  <FF_Energy>  (1029) 
-4.57

>  <QM_Energy>  (1029) 
-9.71

>  <source>  (1029) 
ETAM_MSM

>  <Index>  (1029) 
6294

$$$$
ETAM-pdb4fmm-A-LYS-69:MSM-pdb4fmm-A-MET-110
     RDKit          3D

 20 18  0  0  0  0  0  0  0  0999 V2000
    1.2309    0.8814    0.0000 C   0  0  0  0  0  0  0  0  0  0  0  0
    1.3294    1.2889    0.9087 H   0  0  0  0  0  0  0  0  0  0  0  0
    1.1018    1.6064   -0.6772 H   0  0  0  0  0  0  0  0  0  0  0  0
    2.1381    0.3271   -0.2407 H   0  0  0  0  0  0  0  0  0  0  0  0
    0.0000    0.0000    0.0000 C   0  0  0  0  0  0  0  0  0  0  0  0
    0.0022   -0.5696   -0.8163 H   0  0  0  0  0  0  0  0  0  0  0  0
    0.0019   -0.5691    0.8159 H   0  0  0  0  0  0  0  0  0  0  0  0
   -1.2309    0.8490   -0.0000 N   0  0  0  0  0  4  0  0  0  0  0  0
   -2.0362    0.2588    0.0013 H   0  0  0  0  0  0  0  0  0  0  0  0
   -1.2322    1.4244    0.8157 H   0  0  0  0  0  0  0  0  0  0  0  0
   -1.2339    1.4221   -0.8177 H   0  0  0  0  0  0  0  0  0  0  0  0
   -1.8193    3.9874   -3.5515 C   0  0  0  0  0  0  0  0  0  0  0  0
   -2.7404    4.3405   -3.2366 H   0  0  0  0  0  0  0  0  0  0  0  0
   -2.0167    3.0280   -3.8851 H   0  0  0  0  0  0  0  0  0  0  0  0
   -1.5154    4.5815   -4.4134 H   0  0  0  0  0  0  0  0  0  0  0  0
   -0.6388    3.9628   -2.1860 S   0  0  0  0  0  0  0  0  0  0  0  0
    0.8203    3.2215   -2.9157 C   0  0  0  0  0  0  0  0  0  0  0  0
    1.0690    2.3979   -2.4045 H   0  0  0  0  0  0  0  0  0  0  0  0
    0.6314    2.9776   -3.8679 H   0  0  0  0  0  0  0  0  0  0  0  0
    1.5790    3.8736   -2.8849 H   0  0  0  0  0  0  0  0  0  0  0  0
  1  5  1  0
  5  8  1  0
  1  2  1  0
  1  3  1  0
  1  4  1  0
  5  6  1  0
  5  7  1  0
  8  9  1  0
  8 10  1  0
  8 11  1  0
 12 16  1  0
 16 17  1  0
 12 13  1  0
 12 14  1  0
 12 15  1  0
 17 18  1  0
 17 19  1  0
 17 20  1  0
M  CHG  1   8   1
M  END
>  <PDB_ID>  (1030) 
pdb4fmm

>  <RESIDUE_NAME>  (1030) 
LYS   MET

>  <FRAG_NAME>  (1030) 
ETAM   MSM

>  <FRAG_ATOM_NUM>  (1030) 
fragi: 11  fragj: 9

>  <atom.prop.CHAIN_ID>  (1030) 
A A A A A A A A A A A Z Z Z Z Z Z Z Z Z

>  <atom.prop.IS_HEAVY_ATOM>  (1030) 
1 0 0 0 1 0 0 1 0 0 0 1 0 0 0 1 1 0 0 0

>  <DIFUSE_FUNC_ATOM>  (1030) 
n/a

>  <FINAL_SINGLE_POINT_ENERGY>  (1030) 
0

>  <NONCOV_INTER_ENERGY_QM>  (1030) 
0

>  <FF_Energy>  (1030) 
-2.82

>  <QM_Energy>  (1030) 
-10.41

>  <source>  (1030) 
ETAM_MSM

>  <Index>  (1030) 
6300

$$$$
ETAM-pdb4fma-A-LYS-263:MSM-pdb4fma-A-MET-303
     RDKit          3D

 20 18  0  0  0  0  0  0  0  0999 V2000
    1.2593    0.8722    0.0000 C   0  0  0  0  0  0  0  0  0  0  0  0
    2.0397    0.2892    0.1816 H   0  0  0  0  0  0  0  0  0  0  0  0
    1.1592    1.5607    0.7047 H   0  0  0  0  0  0  0  0  0  0  0  0
    1.3882    1.3589   -0.9667 H   0  0  0  0  0  0  0  0  0  0  0  0
    0.0000    0.0000    0.0000 C   0  0  0  0  0  0  0  0  0  0  0  0
    0.0191   -0.5898   -0.8161 H   0  0  0  0  0  0  0  0  0  0  0  0
    0.0188   -0.5898    0.8162 H   0  0  0  0  0  0  0  0  0  0  0  0
   -1.2593    0.7964    0.0000 N   0  0  0  0  0  4  0  0  0  0  0  0
   -1.0542    1.7398   -0.2572 H   0  0  0  0  0  0  0  0  0  0  0  0
   -1.9006    0.4015   -0.6573 H   0  0  0  0  0  0  0  0  0  0  0  0
   -1.6624    0.7780    0.9144 H   0  0  0  0  0  0  0  0  0  0  0  0
   -0.8841    4.8867   -1.5017 C   0  0  0  0  0  0  0  0  0  0  0  0
   -0.6341    4.6130   -0.5580 H   0  0  0  0  0  0  0  0  0  0  0  0
   -1.4080    5.7517   -1.4356 H   0  0  0  0  0  0  0  0  0  0  0  0
    0.0295    5.0722   -2.0665 H   0  0  0  0  0  0  0  0  0  0  0  0
   -1.8565    3.6056   -2.3067 S   0  0  0  0  0  0  0  0  0  0  0  0
   -3.1844    3.3834   -1.1161 C   0  0  0  0  0  0  0  0  0  0  0  0
   -3.4279    4.2692   -0.7195 H   0  0  0  0  0  0  0  0  0  0  0  0
   -3.9819    2.9932   -1.5767 H   0  0  0  0  0  0  0  0  0  0  0  0
   -2.8809    2.7644   -0.3914 H   0  0  0  0  0  0  0  0  0  0  0  0
  1  5  1  0
  5  8  1  0
  1  2  1  0
  1  3  1  0
  1  4  1  0
  5  6  1  0
  5  7  1  0
  8  9  1  0
  8 10  1  0
  8 11  1  0
 12 16  1  0
 16 17  1  0
 12 13  1  0
 12 14  1  0
 12 15  1  0
 17 18  1  0
 17 19  1  0
 17 20  1  0
M  CHG  1   8   1
M  END
>  <PDB_ID>  (1031) 
pdb4fma

>  <RESIDUE_NAME>  (1031) 
LYS   MET

>  <FRAG_NAME>  (1031) 
ETAM   MSM

>  <FRAG_ATOM_NUM>  (1031) 
fragi: 11  fragj: 9

>  <atom.prop.CHAIN_ID>  (1031) 
A A A A A A A A A A A Z Z Z Z Z Z Z Z Z

>  <atom.prop.IS_HEAVY_ATOM>  (1031) 
1 0 0 0 1 0 0 1 0 0 0 1 0 0 0 1 1 0 0 0

>  <DIFUSE_FUNC_ATOM>  (1031) 
n/a

>  <FINAL_SINGLE_POINT_ENERGY>  (1031) 
0

>  <NONCOV_INTER_ENERGY_QM>  (1031) 
0

>  <FF_Energy>  (1031) 
-2.07

>  <QM_Energy>  (1031) 
-7.78

>  <source>  (1031) 
ETAM_MSM

>  <Index>  (1031) 
6302

$$$$
ETAM-pdb4fma-B-LYS-263:MSM-pdb4fma-B-MET-303
     RDKit          3D

 20 18  0  0  0  0  0  0  0  0999 V2000
    1.2537    0.8567    0.0000 C   0  0  0  0  0  0  0  0  0  0  0  0
    1.1856    1.5189    0.7360 H   0  0  0  0  0  0  0  0  0  0  0  0
    1.3262    1.3141   -0.8777 H   0  0  0  0  0  0  0  0  0  0  0  0
    2.1425    0.2453    0.1556 H   0  0  0  0  0  0  0  0  0  0  0  0
    0.0000    0.0000    0.0000 C   0  0  0  0  0  0  0  0  0  0  0  0
    0.0059   -0.5894   -0.8167 H   0  0  0  0  0  0  0  0  0  0  0  0
    0.0056   -0.5899    0.8165 H   0  0  0  0  0  0  0  0  0  0  0  0
   -1.2537    0.8136    0.0000 N   0  0  0  0  0  4  0  0  0  0  0  0
   -1.6972    0.7330   -0.8907 H   0  0  0  0  0  0  0  0  0  0  0  0
   -1.8652    0.4749    0.7131 H   0  0  0  0  0  0  0  0  0  0  0  0
   -1.0249    1.7694    0.1779 H   0  0  0  0  0  0  0  0  0  0  0  0
    1.0590    1.9163    4.6541 C   0  0  0  0  0  0  0  0  0  0  0  0
    0.8408    0.9762    4.3181 H   0  0  0  0  0  0  0  0  0  0  0  0
    0.9018    1.8977    5.6645 H   0  0  0  0  0  0  0  0  0  0  0  0
    2.1185    2.1019    4.4775 H   0  0  0  0  0  0  0  0  0  0  0  0
    0.0067    3.1463    3.8605 S   0  0  0  0  0  0  0  0  0  0  0  0
    0.0804    2.5945    2.1922 C   0  0  0  0  0  0  0  0  0  0  0  0
   -0.6417    3.0330    1.6447 H   0  0  0  0  0  0  0  0  0  0  0  0
    0.9718    2.8228    1.7848 H   0  0  0  0  0  0  0  0  0  0  0  0
   -0.0456    1.5968    2.1458 H   0  0  0  0  0  0  0  0  0  0  0  0
  1  5  1  0
  5  8  1  0
  1  2  1  0
  1  3  1  0
  1  4  1  0
  5  6  1  0
  5  7  1  0
  8  9  1  0
  8 10  1  0
  8 11  1  0
 12 16  1  0
 16 17  1  0
 12 13  1  0
 12 14  1  0
 12 15  1  0
 17 18  1  0
 17 19  1  0
 17 20  1  0
M  CHG  1   8   1
M  END
>  <PDB_ID>  (1032) 
pdb4fma

>  <RESIDUE_NAME>  (1032) 
LYS   MET

>  <FRAG_NAME>  (1032) 
ETAM   MSM

>  <FRAG_ATOM_NUM>  (1032) 
fragi: 11  fragj: 9

>  <atom.prop.CHAIN_ID>  (1032) 
A A A A A A A A A A A Z Z Z Z Z Z Z Z Z

>  <atom.prop.IS_HEAVY_ATOM>  (1032) 
1 0 0 0 1 0 0 1 0 0 0 1 0 0 0 1 1 0 0 0

>  <DIFUSE_FUNC_ATOM>  (1032) 
n/a

>  <FINAL_SINGLE_POINT_ENERGY>  (1032) 
0

>  <NONCOV_INTER_ENERGY_QM>  (1032) 
0

>  <FF_Energy>  (1032) 
22.43

>  <QM_Energy>  (1032) 
5.8

>  <source>  (1032) 
ETAM_MSM

>  <Index>  (1032) 
6303

$$$$
ETAM-pdb3ik7-B-LYS-87:MSM-pdb3ik7-A-MET-63
     RDKit          3D

 20 18  0  0  0  0  0  0  0  0999 V2000
    1.2780    0.8893    0.0000 C   0  0  0  0  0  0  0  0  0  0  0  0
    1.4022    1.2485    0.9162 H   0  0  0  0  0  0  0  0  0  0  0  0
    1.1402    1.6244   -0.6513 H   0  0  0  0  0  0  0  0  0  0  0  0
    2.1712    0.3319   -0.2822 H   0  0  0  0  0  0  0  0  0  0  0  0
    0.0000    0.0000    0.0000 C   0  0  0  0  0  0  0  0  0  0  0  0
    0.0277   -0.5857   -0.8167 H   0  0  0  0  0  0  0  0  0  0  0  0
    0.0270   -0.5860    0.8160 H   0  0  0  0  0  0  0  0  0  0  0  0
   -1.2780    0.7903   -0.0000 N   0  0  0  0  0  4  0  0  0  0  0  0
   -1.6333    0.8330    0.9315 H   0  0  0  0  0  0  0  0  0  0  0  0
   -1.0899    1.7109   -0.3350 H   0  0  0  0  0  0  0  0  0  0  0  0
   -1.9386    0.3390   -0.5962 H   0  0  0  0  0  0  0  0  0  0  0  0
   -1.9408    5.6203   -0.5654 C   0  0  0  0  0  0  0  0  0  0  0  0
   -1.0614    6.1273   -0.5580 H   0  0  0  0  0  0  0  0  0  0  0  0
   -2.1943    5.4487    0.4027 H   0  0  0  0  0  0  0  0  0  0  0  0
   -2.7067    6.2384   -1.0339 H   0  0  0  0  0  0  0  0  0  0  0  0
   -1.7787    4.0780   -1.4620 S   0  0  0  0  0  0  0  0  0  0  0  0
   -3.2116    3.2277   -0.8417 C   0  0  0  0  0  0  0  0  0  0  0  0
   -3.3970    3.5134    0.1024 H   0  0  0  0  0  0  0  0  0  0  0  0
   -4.0098    3.4424   -1.4110 H   0  0  0  0  0  0  0  0  0  0  0  0
   -3.0554    2.2368   -0.8582 H   0  0  0  0  0  0  0  0  0  0  0  0
  1  5  1  0
  5  8  1  0
  1  2  1  0
  1  3  1  0
  1  4  1  0
  5  6  1  0
  5  7  1  0
  8  9  1  0
  8 10  1  0
  8 11  1  0
 12 16  1  0
 16 17  1  0
 12 13  1  0
 12 14  1  0
 12 15  1  0
 17 18  1  0
 17 19  1  0
 17 20  1  0
M  CHG  1   8   1
M  END
>  <PDB_ID>  (1033) 
pdb3ik7

>  <RESIDUE_NAME>  (1033) 
LYS   MET

>  <FRAG_NAME>  (1033) 
ETAM   MSM

>  <FRAG_ATOM_NUM>  (1033) 
fragi: 11  fragj: 9

>  <atom.prop.CHAIN_ID>  (1033) 
A A A A A A A A A A A Z Z Z Z Z Z Z Z Z

>  <atom.prop.IS_HEAVY_ATOM>  (1033) 
1 0 0 0 1 0 0 1 0 0 0 1 0 0 0 1 1 0 0 0

>  <DIFUSE_FUNC_ATOM>  (1033) 
n/a

>  <FINAL_SINGLE_POINT_ENERGY>  (1033) 
0

>  <NONCOV_INTER_ENERGY_QM>  (1033) 
0

>  <FF_Energy>  (1033) 
-1.49

>  <QM_Energy>  (1033) 
-8.56

>  <source>  (1033) 
ETAM_MSM

>  <Index>  (1033) 
6312

$$$$
ETAM-pdb4fml-B-LYS-124:MSM-pdb4fml-A-MET-66
     RDKit          3D

 20 18  0  0  0  0  0  0  0  0999 V2000
    1.2289    0.8732   -0.0000 C   0  0  0  0  0  0  0  0  0  0  0  0
    1.2355    1.3987    0.8158 H   0  0  0  0  0  0  0  0  0  0  0  0
    1.1981    1.4508   -0.7788 H   0  0  0  0  0  0  0  0  0  0  0  0
    2.1225    0.2505   -0.0416 H   0  0  0  0  0  0  0  0  0  0  0  0
    0.0000    0.0000    0.0000 C   0  0  0  0  0  0  0  0  0  0  0  0
    0.0130   -0.5574   -0.7934 H   0  0  0  0  0  0  0  0  0  0  0  0
    0.0133   -0.5576    0.7928 H   0  0  0  0  0  0  0  0  0  0  0  0
   -1.2289    0.7285   -0.0000 N   0  0  0  0  0  4  0  0  0  0  0  0
   -1.2770    1.2432   -0.7240 H   0  0  0  0  0  0  0  0  0  0  0  0
   -1.9174    0.1641    0.0002 H   0  0  0  0  0  0  0  0  0  0  0  0
   -1.2770    1.2436    0.7240 H   0  0  0  0  0  0  0  0  0  0  0  0
   -3.8818   -2.8276   -0.9709 C   0  0  0  0  0  0  0  0  0  0  0  0
   -4.1629   -2.2719   -1.7147 H   0  0  0  0  0  0  0  0  0  0  0  0
   -4.3589   -2.5855   -0.1616 H   0  0  0  0  0  0  0  0  0  0  0  0
   -4.0652   -3.8761   -1.2056 H   0  0  0  0  0  0  0  0  0  0  0  0
   -2.0790   -2.5715   -0.6920 S   0  0  0  0  0  0  0  0  0  0  0  0
   -1.8372   -3.4495    0.8435 C   0  0  0  0  0  0  0  0  0  0  0  0
   -0.9139   -3.3857    1.0971 H   0  0  0  0  0  0  0  0  0  0  0  0
   -2.3912   -3.0537    1.5200 H   0  0  0  0  0  0  0  0  0  0  0  0
   -2.0799   -4.3695    0.7184 H   0  0  0  0  0  0  0  0  0  0  0  0
  1  5  1  0
  5  8  1  0
  1  2  1  0
  1  3  1  0
  1  4  1  0
  5  6  1  0
  5  7  1  0
  8  9  1  0
  8 10  1  0
  8 11  1  0
 12 16  1  0
 16 17  1  0
 12 13  1  0
 12 14  1  0
 12 15  1  0
 17 18  1  0
 17 19  1  0
 17 20  1  0
M  CHG  1   8   1
M  END
>  <PDB_ID>  (1034) 
pdb4fml

>  <RESIDUE_NAME>  (1034) 
LYS   MET

>  <FRAG_NAME>  (1034) 
ETAM   MSM

>  <FRAG_ATOM_NUM>  (1034) 
fragi: 11  fragj: 9

>  <atom.prop.CHAIN_ID>  (1034) 
A A A A A A A A A A A Z Z Z Z Z Z Z Z Z

>  <atom.prop.IS_HEAVY_ATOM>  (1034) 
1 0 0 0 1 0 0 1 0 0 0 1 0 0 0 1 1 0 0 0

>  <DIFUSE_FUNC_ATOM>  (1034) 
n/a

>  <FINAL_SINGLE_POINT_ENERGY>  (1034) 
0

>  <NONCOV_INTER_ENERGY_QM>  (1034) 
0

>  <FF_Energy>  (1034) 
-4.71

>  <QM_Energy>  (1034) 
-13.82

>  <source>  (1034) 
ETAM_MSM

>  <Index>  (1034) 
6318

$$$$
ETAM-pdb4fng-A-LYS-74:MSM-pdb4fng-A-MET-283
     RDKit          3D

 20 18  0  0  0  0  0  0  0  0999 V2000
    1.2451    0.8675    0.0000 C   0  0  0  0  0  0  0  0  0  0  0  0
    2.0331    0.2925   -0.1959 H   0  0  0  0  0  0  0  0  0  0  0  0
    1.3398    1.2879    0.8965 H   0  0  0  0  0  0  0  0  0  0  0  0
    1.1842    1.6521   -0.7542 H   0  0  0  0  0  0  0  0  0  0  0  0
    0.0000    0.0000    0.0000 C   0  0  0  0  0  0  0  0  0  0  0  0
    0.0033   -0.5794   -0.8162 H   0  0  0  0  0  0  0  0  0  0  0  0
    0.0027   -0.5800    0.8158 H   0  0  0  0  0  0  0  0  0  0  0  0
   -1.2451    0.8318   -0.0000 N   0  0  0  0  0  4  0  0  0  0  0  0
   -1.1610    1.5469   -0.6914 H   0  0  0  0  0  0  0  0  0  0  0  0
   -2.0278    0.2493   -0.2098 H   0  0  0  0  0  0  0  0  0  0  0  0
   -1.3629    1.2450    0.9013 H   0  0  0  0  0  0  0  0  0  0  0  0
   -5.3951    1.3048    2.5108 C   0  0  0  0  0  0  0  0  0  0  0  0
   -5.2062    1.2341    3.5223 H   0  0  0  0  0  0  0  0  0  0  0  0
   -5.4400    0.3257    2.1857 H   0  0  0  0  0  0  0  0  0  0  0  0
   -6.3754    1.7612    2.3732 H   0  0  0  0  0  0  0  0  0  0  0  0
   -4.0573    2.1863    1.6782 S   0  0  0  0  0  0  0  0  0  0  0  0
   -4.4875    1.9115   -0.0482 C   0  0  0  0  0  0  0  0  0  0  0  0
   -4.5203    0.9294   -0.2290 H   0  0  0  0  0  0  0  0  0  0  0  0
   -5.3817    2.3168   -0.2351 H   0  0  0  0  0  0  0  0  0  0  0  0
   -3.7976    2.3374   -0.6328 H   0  0  0  0  0  0  0  0  0  0  0  0
  1  5  1  0
  5  8  1  0
  1  2  1  0
  1  3  1  0
  1  4  1  0
  5  6  1  0
  5  7  1  0
  8  9  1  0
  8 10  1  0
  8 11  1  0
 12 16  1  0
 16 17  1  0
 12 13  1  0
 12 14  1  0
 12 15  1  0
 17 18  1  0
 17 19  1  0
 17 20  1  0
M  CHG  1   8   1
M  END
>  <PDB_ID>  (1035) 
pdb4fng

>  <RESIDUE_NAME>  (1035) 
LYS   MET

>  <FRAG_NAME>  (1035) 
ETAM   MSM

>  <FRAG_ATOM_NUM>  (1035) 
fragi: 11  fragj: 9

>  <atom.prop.CHAIN_ID>  (1035) 
A A A A A A A A A A A Z Z Z Z Z Z Z Z Z

>  <atom.prop.IS_HEAVY_ATOM>  (1035) 
1 0 0 0 1 0 0 1 0 0 0 1 0 0 0 1 1 0 0 0

>  <DIFUSE_FUNC_ATOM>  (1035) 
n/a

>  <FINAL_SINGLE_POINT_ENERGY>  (1035) 
0

>  <NONCOV_INTER_ENERGY_QM>  (1035) 
0

>  <FF_Energy>  (1035) 
-3.37

>  <QM_Energy>  (1035) 
-9.24

>  <source>  (1035) 
ETAM_MSM

>  <Index>  (1035) 
6319

$$$$
ETAM-pdb4fmm-B-LYS-69:MSM-pdb4fmm-B-MET-110
     RDKit          3D

 20 18  0  0  0  0  0  0  0  0999 V2000
    1.2673    0.8400    0.0000 C   0  0  0  0  0  0  0  0  0  0  0  0
    1.3022    1.3654    0.8454 H   0  0  0  0  0  0  0  0  0  0  0  0
    1.2430    1.4543   -0.7834 H   0  0  0  0  0  0  0  0  0  0  0  0
    2.1657    0.2262   -0.0654 H   0  0  0  0  0  0  0  0  0  0  0  0
    0.0000    0.0000    0.0000 C   0  0  0  0  0  0  0  0  0  0  0  0
   -0.0014   -0.5939   -0.8159 H   0  0  0  0  0  0  0  0  0  0  0  0
   -0.0014   -0.5942    0.8163 H   0  0  0  0  0  0  0  0  0  0  0  0
   -1.2673    0.8150    0.0000 N   0  0  0  0  0  4  0  0  0  0  0  0
   -1.0292    1.7821   -0.0309 H   0  0  0  0  0  0  0  0  0  0  0  0
   -1.8079    0.5701   -0.8003 H   0  0  0  0  0  0  0  0  0  0  0  0
   -1.7782    0.6158    0.8318 H   0  0  0  0  0  0  0  0  0  0  0  0
   -1.3616    3.6079    4.1162 C   0  0  0  0  0  0  0  0  0  0  0  0
   -2.3820    3.8191    4.0990 H   0  0  0  0  0  0  0  0  0  0  0  0
   -0.9704    4.2692    3.4128 H   0  0  0  0  0  0  0  0  0  0  0  0
   -0.9820    3.9056    5.0936 H   0  0  0  0  0  0  0  0  0  0  0  0
   -1.0580    1.8891    3.6129 S   0  0  0  0  0  0  0  0  0  0  0  0
    0.7425    1.8446    3.5006 C   0  0  0  0  0  0  0  0  0  0  0  0
    1.0224    2.1328    2.5861 H   0  0  0  0  0  0  0  0  0  0  0  0
    1.1303    2.4641    4.1819 H   0  0  0  0  0  0  0  0  0  0  0  0
    1.0599    0.9133    3.6729 H   0  0  0  0  0  0  0  0  0  0  0  0
  1  5  1  0
  5  8  1  0
  1  2  1  0
  1  3  1  0
  1  4  1  0
  5  6  1  0
  5  7  1  0
  8  9  1  0
  8 10  1  0
  8 11  1  0
 12 16  1  0
 16 17  1  0
 12 13  1  0
 12 14  1  0
 12 15  1  0
 17 18  1  0
 17 19  1  0
 17 20  1  0
M  CHG  1   8   1
M  END
>  <PDB_ID>  (1036) 
pdb4fmm

>  <RESIDUE_NAME>  (1036) 
LYS   MET

>  <FRAG_NAME>  (1036) 
ETAM   MSM

>  <FRAG_ATOM_NUM>  (1036) 
fragi: 11  fragj: 9

>  <atom.prop.CHAIN_ID>  (1036) 
A A A A A A A A A A A Z Z Z Z Z Z Z Z Z

>  <atom.prop.IS_HEAVY_ATOM>  (1036) 
1 0 0 0 1 0 0 1 0 0 0 1 0 0 0 1 1 0 0 0

>  <DIFUSE_FUNC_ATOM>  (1036) 
n/a

>  <FINAL_SINGLE_POINT_ENERGY>  (1036) 
0

>  <NONCOV_INTER_ENERGY_QM>  (1036) 
0

>  <FF_Energy>  (1036) 
-3.22

>  <QM_Energy>  (1036) 
-9.55

>  <source>  (1036) 
ETAM_MSM

>  <Index>  (1036) 
6322

$$$$
ETAM-pdb3imo-D-ALA-2:MSM-pdb3imo-D-MET-52
     RDKit          3D

 20 18  0  0  0  0  0  0  0  0999 V2000
    1.2215    0.8990   -0.0000 C   0  0  0  0  0  0  0  0  0  0  0  0
    1.9055    0.5382    0.6343 H   0  0  0  0  0  0  0  0  0  0  0  0
    1.6115    0.9368   -0.9201 H   0  0  0  0  0  0  0  0  0  0  0  0
    0.9607    1.8218    0.2854 H   0  0  0  0  0  0  0  0  0  0  0  0
    0.0000    0.0000    0.0000 C   0  0  0  0  0  0  0  0  0  0  0  0
    0.0250   -0.5493   -0.8463 H   0  0  0  0  0  0  0  0  0  0  0  0
    0.0323   -0.6772    0.8535 H   0  0  0  0  0  0  0  0  0  0  0  0
   -1.2215    0.8051    0.0000 N   0  0  0  0  0  4  0  0  0  0  0  0
   -1.8514    0.4680   -0.7019 H   0  0  0  0  0  0  0  0  0  0  0  0
   -1.6677    0.7468    0.8947 H   0  0  0  0  0  0  0  0  0  0  0  0
   -0.9988    1.7621   -0.1926 H   0  0  0  0  0  0  0  0  0  0  0  0
    2.1468   -0.3957   -4.6990 C   0  0  0  0  0  0  0  0  0  0  0  0
    2.8597   -1.0697   -4.4053 H   0  0  0  0  0  0  0  0  0  0  0  0
    2.5932    0.1865   -5.4139 H   0  0  0  0  0  0  0  0  0  0  0  0
    1.3237   -0.9417   -5.1599 H   0  0  0  0  0  0  0  0  0  0  0  0
    1.6070    0.6118   -3.3011 S   0  0  0  0  0  0  0  0  0  0  0  0
    0.1964    1.4627   -4.0085 C   0  0  0  0  0  0  0  0  0  0  0  0
    0.2163    1.3729   -5.0049 H   0  0  0  0  0  0  0  0  0  0  0  0
   -0.6487    1.0603   -3.6557 H   0  0  0  0  0  0  0  0  0  0  0  0
    0.2314    2.4323   -3.7616 H   0  0  0  0  0  0  0  0  0  0  0  0
  1  5  1  0
  5  8  1  0
  1  2  1  0
  1  3  1  0
  1  4  1  0
  5  6  1  0
  5  7  1  0
  8  9  1  0
  8 10  1  0
  8 11  1  0
 12 16  1  0
 16 17  1  0
 12 13  1  0
 12 14  1  0
 12 15  1  0
 17 18  1  0
 17 19  1  0
 17 20  1  0
M  CHG  1   8   1
M  END
>  <PDB_ID>  (1037) 
pdb3imo

>  <RESIDUE_NAME>  (1037) 
ALA   MET

>  <FRAG_NAME>  (1037) 
ETAM   MSM

>  <FRAG_ATOM_NUM>  (1037) 
fragi: 11  fragj: 9

>  <atom.prop.CHAIN_ID>  (1037) 
A A A A A A A A A A A Z Z Z Z Z Z Z Z Z

>  <atom.prop.IS_HEAVY_ATOM>  (1037) 
1 0 0 0 1 0 0 1 0 0 0 1 0 0 0 1 1 0 0 0

>  <DIFUSE_FUNC_ATOM>  (1037) 
n/a

>  <FINAL_SINGLE_POINT_ENERGY>  (1037) 
0

>  <NONCOV_INTER_ENERGY_QM>  (1037) 
0

>  <FF_Energy>  (1037) 
0.97

>  <QM_Energy>  (1037) 
-5.73

>  <source>  (1037) 
ETAM_MSM

>  <Index>  (1037) 
6326

$$$$
ETAM-pdb4ftx-B-LYS-79:MSM-pdb4ftx-B-MET-112
     RDKit          3D

 20 18  0  0  0  0  0  0  0  0999 V2000
    1.2443    0.8918    0.0000 C   0  0  0  0  0  0  0  0  0  0  0  0
    1.2722    1.3819    0.8535 H   0  0  0  0  0  0  0  0  0  0  0  0
    1.1891    1.4979   -0.7733 H   0  0  0  0  0  0  0  0  0  0  0  0
    2.1288    0.2612   -0.0896 H   0  0  0  0  0  0  0  0  0  0  0  0
    0.0000    0.0000    0.0000 C   0  0  0  0  0  0  0  0  0  0  0  0
    0.0252   -0.5807   -0.8167 H   0  0  0  0  0  0  0  0  0  0  0  0
    0.0247   -0.5813    0.8167 H   0  0  0  0  0  0  0  0  0  0  0  0
   -1.2443    0.8018    0.0000 N   0  0  0  0  0  4  0  0  0  0  0  0
   -1.3636    1.2357    0.8940 H   0  0  0  0  0  0  0  0  0  0  0  0
   -1.1883    1.5077   -0.7071 H   0  0  0  0  0  0  0  0  0  0  0  0
   -2.0267    0.2064   -0.1871 H   0  0  0  0  0  0  0  0  0  0  0  0
   -1.7606    5.1105    2.8238 C   0  0  0  0  0  0  0  0  0  0  0  0
   -1.5306    5.7608    2.0601 H   0  0  0  0  0  0  0  0  0  0  0  0
   -1.1397    5.3801    3.5996 H   0  0  0  0  0  0  0  0  0  0  0  0
   -2.7918    5.2887    3.1290 H   0  0  0  0  0  0  0  0  0  0  0  0
   -1.4439    3.4045    2.3214 S   0  0  0  0  0  0  0  0  0  0  0  0
   -1.3374    2.6121    3.9306 C   0  0  0  0  0  0  0  0  0  0  0  0
   -2.2388    2.6153    4.3641 H   0  0  0  0  0  0  0  0  0  0  0  0
   -1.0254    1.6685    3.8175 H   0  0  0  0  0  0  0  0  0  0  0  0
   -0.6891    3.1114    4.5050 H   0  0  0  0  0  0  0  0  0  0  0  0
  1  5  1  0
  5  8  1  0
  1  2  1  0
  1  3  1  0
  1  4  1  0
  5  6  1  0
  5  7  1  0
  8  9  1  0
  8 10  1  0
  8 11  1  0
 12 16  1  0
 16 17  1  0
 12 13  1  0
 12 14  1  0
 12 15  1  0
 17 18  1  0
 17 19  1  0
 17 20  1  0
M  CHG  1   8   1
M  END
>  <PDB_ID>  (1038) 
pdb4ftx

>  <RESIDUE_NAME>  (1038) 
LYS   MET

>  <FRAG_NAME>  (1038) 
ETAM   MSM

>  <FRAG_ATOM_NUM>  (1038) 
fragi: 11  fragj: 9

>  <atom.prop.CHAIN_ID>  (1038) 
A A A A A A A A A A A Z Z Z Z Z Z Z Z Z

>  <atom.prop.IS_HEAVY_ATOM>  (1038) 
1 0 0 0 1 0 0 1 0 0 0 1 0 0 0 1 1 0 0 0

>  <DIFUSE_FUNC_ATOM>  (1038) 
n/a

>  <FINAL_SINGLE_POINT_ENERGY>  (1038) 
0

>  <NONCOV_INTER_ENERGY_QM>  (1038) 
0

>  <FF_Energy>  (1038) 
-5.69

>  <QM_Energy>  (1038) 
-12.03

>  <source>  (1038) 
ETAM_MSM

>  <Index>  (1038) 
6343

$$$$
ETAM-pdb4fnv-A-LYS-616:MSM-pdb4fnv-A-MET-645
     RDKit          3D

 20 18  0  0  0  0  0  0  0  0999 V2000
    1.2494    0.8675    0.0000 C   0  0  0  0  0  0  0  0  0  0  0  0
    2.0102    0.3257    0.3670 H   0  0  0  0  0  0  0  0  0  0  0  0
    1.0888    1.6537    0.6028 H   0  0  0  0  0  0  0  0  0  0  0  0
    1.5247    1.2333   -0.9892 H   0  0  0  0  0  0  0  0  0  0  0  0
    0.0000    0.0000    0.0000 C   0  0  0  0  0  0  0  0  0  0  0  0
    0.0096   -0.5848   -0.8161 H   0  0  0  0  0  0  0  0  0  0  0  0
    0.0093   -0.5855    0.8167 H   0  0  0  0  0  0  0  0  0  0  0  0
   -1.2494    0.8150    0.0000 N   0  0  0  0  0  4  0  0  0  0  0  0
   -1.3250    1.3029    0.8681 H   0  0  0  0  0  0  0  0  0  0  0  0
   -1.2147    1.4715   -0.7525 H   0  0  0  0  0  0  0  0  0  0  0  0
   -2.0371    0.2109   -0.1161 H   0  0  0  0  0  0  0  0  0  0  0  0
   -1.0076    5.2258    1.4618 C   0  0  0  0  0  0  0  0  0  0  0  0
   -1.1699    5.7017    2.3571 H   0  0  0  0  0  0  0  0  0  0  0  0
   -1.9428    5.0567    1.0714 H   0  0  0  0  0  0  0  0  0  0  0  0
   -0.4719    5.9057    0.7993 H   0  0  0  0  0  0  0  0  0  0  0  0
   -0.1377    3.6604    1.7251 S   0  0  0  0  0  0  0  0  0  0  0  0
    1.3659    4.2219    2.5235 C   0  0  0  0  0  0  0  0  0  0  0  0
    2.1116    3.5859    2.3190 H   0  0  0  0  0  0  0  0  0  0  0  0
    1.6044    5.1337    2.1857 H   0  0  0  0  0  0  0  0  0  0  0  0
    1.2251    4.2607    3.5140 H   0  0  0  0  0  0  0  0  0  0  0  0
  1  5  1  0
  5  8  1  0
  1  2  1  0
  1  3  1  0
  1  4  1  0
  5  6  1  0
  5  7  1  0
  8  9  1  0
  8 10  1  0
  8 11  1  0
 12 16  1  0
 16 17  1  0
 12 13  1  0
 12 14  1  0
 12 15  1  0
 17 18  1  0
 17 19  1  0
 17 20  1  0
M  CHG  1   8   1
M  END
>  <PDB_ID>  (1039) 
pdb4fnv

>  <RESIDUE_NAME>  (1039) 
LYS   MET

>  <FRAG_NAME>  (1039) 
ETAM   MSM

>  <FRAG_ATOM_NUM>  (1039) 
fragi: 11  fragj: 9

>  <atom.prop.CHAIN_ID>  (1039) 
A A A A A A A A A A A Z Z Z Z Z Z Z Z Z

>  <atom.prop.IS_HEAVY_ATOM>  (1039) 
1 0 0 0 1 0 0 1 0 0 0 1 0 0 0 1 1 0 0 0

>  <DIFUSE_FUNC_ATOM>  (1039) 
n/a

>  <FINAL_SINGLE_POINT_ENERGY>  (1039) 
0

>  <NONCOV_INTER_ENERGY_QM>  (1039) 
0

>  <FF_Energy>  (1039) 
-4.62

>  <QM_Energy>  (1039) 
-12.37

>  <source>  (1039) 
ETAM_MSM

>  <Index>  (1039) 
6344

$$$$
ETAM-pdb3ird-A-LYS-58:MSM-pdb3ird-A-MET-89
     RDKit          3D

 20 18  0  0  0  0  0  0  0  0999 V2000
    1.2549    0.8276    0.0000 C   0  0  0  0  0  0  0  0  0  0  0  0
    1.3803    1.2276   -0.9089 H   0  0  0  0  0  0  0  0  0  0  0  0
    2.0333    0.2364    0.2127 H   0  0  0  0  0  0  0  0  0  0  0  0
    1.2210    1.6343    0.7323 H   0  0  0  0  0  0  0  0  0  0  0  0
    0.0000    0.0000    0.0000 C   0  0  0  0  0  0  0  0  0  0  0  0
   -0.0216   -0.5845   -0.8162 H   0  0  0  0  0  0  0  0  0  0  0  0
   -0.0225   -0.5847    0.8161 H   0  0  0  0  0  0  0  0  0  0  0  0
   -1.2549    0.8553   -0.0000 N   0  0  0  0  0  4  0  0  0  0  0  0
   -1.9032    0.4656   -0.6453 H   0  0  0  0  0  0  0  0  0  0  0  0
   -1.6371    0.8558    0.9186 H   0  0  0  0  0  0  0  0  0  0  0  0
   -1.0075    1.7795   -0.2727 H   0  0  0  0  0  0  0  0  0  0  0  0
   -4.0668    2.7927    4.0701 C   0  0  0  0  0  0  0  0  0  0  0  0
   -4.3620    3.7417    4.2971 H   0  0  0  0  0  0  0  0  0  0  0  0
   -3.5925    2.4321    4.8966 H   0  0  0  0  0  0  0  0  0  0  0  0
   -4.9507    2.1851    3.8758 H   0  0  0  0  0  0  0  0  0  0  0  0
   -2.9165    2.8136    2.6424 S   0  0  0  0  0  0  0  0  0  0  0  0
   -1.3839    3.4110    3.4498 C   0  0  0  0  0  0  0  0  0  0  0  0
   -0.7828    2.6328    3.6001 H   0  0  0  0  0  0  0  0  0  0  0  0
   -0.9502    4.0751    2.8506 H   0  0  0  0  0  0  0  0  0  0  0  0
   -1.6282    3.8332    4.3163 H   0  0  0  0  0  0  0  0  0  0  0  0
  1  5  1  0
  5  8  1  0
  1  2  1  0
  1  3  1  0
  1  4  1  0
  5  6  1  0
  5  7  1  0
  8  9  1  0
  8 10  1  0
  8 11  1  0
 12 16  1  0
 16 17  1  0
 12 13  1  0
 12 14  1  0
 12 15  1  0
 17 18  1  0
 17 19  1  0
 17 20  1  0
M  CHG  1   8   1
M  END
>  <PDB_ID>  (1040) 
pdb3ird

>  <RESIDUE_NAME>  (1040) 
LYS   MET

>  <FRAG_NAME>  (1040) 
ETAM   MSM

>  <FRAG_ATOM_NUM>  (1040) 
fragi: 11  fragj: 9

>  <atom.prop.CHAIN_ID>  (1040) 
A A A A A A A A A A A Z Z Z Z Z Z Z Z Z

>  <atom.prop.IS_HEAVY_ATOM>  (1040) 
1 0 0 0 1 0 0 1 0 0 0 1 0 0 0 1 1 0 0 0

>  <DIFUSE_FUNC_ATOM>  (1040) 
n/a

>  <FINAL_SINGLE_POINT_ENERGY>  (1040) 
0

>  <NONCOV_INTER_ENERGY_QM>  (1040) 
0

>  <FF_Energy>  (1040) 
-4.7

>  <QM_Energy>  (1040) 
-11.26

>  <source>  (1040) 
ETAM_MSM

>  <Index>  (1040) 
6349

$$$$
ETAM-pdb3isq-A-LYS-270:MSM-pdb3isq-A-MET-180
     RDKit          3D

 20 18  0  0  0  0  0  0  0  0999 V2000
    1.2479    0.8928    0.0000 C   0  0  0  0  0  0  0  0  0  0  0  0
    1.3289    1.3148    0.9017 H   0  0  0  0  0  0  0  0  0  0  0  0
    1.1241    1.5996   -0.6936 H   0  0  0  0  0  0  0  0  0  0  0  0
    2.1616    0.3389   -0.2154 H   0  0  0  0  0  0  0  0  0  0  0  0
    0.0000    0.0000    0.0000 C   0  0  0  0  0  0  0  0  0  0  0  0
    0.0122   -0.5705   -0.8159 H   0  0  0  0  0  0  0  0  0  0  0  0
    0.0112   -0.5698    0.8161 H   0  0  0  0  0  0  0  0  0  0  0  0
   -1.2479    0.8350   -0.0000 N   0  0  0  0  0  4  0  0  0  0  0  0
   -1.8591    0.5060   -0.7165 H   0  0  0  0  0  0  0  0  0  0  0  0
   -1.6919    0.7554    0.8898 H   0  0  0  0  0  0  0  0  0  0  0  0
   -1.0030    1.7861   -0.1737 H   0  0  0  0  0  0  0  0  0  0  0  0
   -1.0291   -2.0296   -3.2084 C   0  0  0  0  0  0  0  0  0  0  0  0
   -0.1667   -2.1482   -2.6726 H   0  0  0  0  0  0  0  0  0  0  0  0
   -0.8900   -1.1979   -3.7863 H   0  0  0  0  0  0  0  0  0  0  0  0
   -1.2059   -2.9024   -3.8370 H   0  0  0  0  0  0  0  0  0  0  0  0
   -2.4206   -1.7509   -2.0675 S   0  0  0  0  0  0  0  0  0  0  0  0
   -2.1285   -3.2090   -1.0030 C   0  0  0  0  0  0  0  0  0  0  0  0
   -1.6777   -3.9112   -1.5441 H   0  0  0  0  0  0  0  0  0  0  0  0
   -1.5501   -2.9347   -0.2409 H   0  0  0  0  0  0  0  0  0  0  0  0
   -3.0063   -3.5388   -0.6697 H   0  0  0  0  0  0  0  0  0  0  0  0
  1  5  1  0
  5  8  1  0
  1  2  1  0
  1  3  1  0
  1  4  1  0
  5  6  1  0
  5  7  1  0
  8  9  1  0
  8 10  1  0
  8 11  1  0
 12 16  1  0
 16 17  1  0
 12 13  1  0
 12 14  1  0
 12 15  1  0
 17 18  1  0
 17 19  1  0
 17 20  1  0
M  CHG  1   8   1
M  END
>  <PDB_ID>  (1041) 
pdb3isq

>  <RESIDUE_NAME>  (1041) 
LYS   MET

>  <FRAG_NAME>  (1041) 
ETAM   MSM

>  <FRAG_ATOM_NUM>  (1041) 
fragi: 11  fragj: 9

>  <atom.prop.CHAIN_ID>  (1041) 
A A A A A A A A A A A Z Z Z Z Z Z Z Z Z

>  <atom.prop.IS_HEAVY_ATOM>  (1041) 
1 0 0 0 1 0 0 1 0 0 0 1 0 0 0 1 1 0 0 0

>  <DIFUSE_FUNC_ATOM>  (1041) 
n/a

>  <FINAL_SINGLE_POINT_ENERGY>  (1041) 
0

>  <NONCOV_INTER_ENERGY_QM>  (1041) 
0

>  <FF_Energy>  (1041) 
-4.8

>  <QM_Energy>  (1041) 
-13.66

>  <source>  (1041) 
ETAM_MSM

>  <Index>  (1041) 
6355

$$$$
ETAM-pdb4g3h-B-LYS-218:MSM-pdb4g3h-A-MET-39
     RDKit          3D

 20 18  0  0  0  0  0  0  0  0999 V2000
    1.2399    0.8786   -0.0000 C   0  0  0  0  0  0  0  0  0  0  0  0
    1.2243    1.4487    0.8158 H   0  0  0  0  0  0  0  0  0  0  0  0
    1.2266    1.4440   -0.8179 H   0  0  0  0  0  0  0  0  0  0  0  0
    2.1510    0.2803    0.0034 H   0  0  0  0  0  0  0  0  0  0  0  0
    0.0000    0.0000    0.0000 C   0  0  0  0  0  0  0  0  0  0  0  0
    0.0092   -0.5773   -0.8162 H   0  0  0  0  0  0  0  0  0  0  0  0
    0.0089   -0.5767    0.8168 H   0  0  0  0  0  0  0  0  0  0  0  0
   -1.2399    0.8288    0.0000 N   0  0  0  0  0  4  0  0  0  0  0  0
   -1.1021    1.6284    0.5831 H   0  0  0  0  0  0  0  0  0  0  0  0
   -1.4400    1.1240   -0.9330 H   0  0  0  0  0  0  0  0  0  0  0  0
   -2.0005    0.2844    0.3499 H   0  0  0  0  0  0  0  0  0  0  0  0
    0.7191    0.7097   -3.8659 C   0  0  0  0  0  0  0  0  0  0  0  0
    0.9471   -0.1291   -3.3307 H   0  0  0  0  0  0  0  0  0  0  0  0
    1.3324    1.4469   -3.5146 H   0  0  0  0  0  0  0  0  0  0  0  0
    0.9599    0.5275   -4.9132 H   0  0  0  0  0  0  0  0  0  0  0  0
   -1.0165    1.1608   -3.6413 S   0  0  0  0  0  0  0  0  0  0  0  0
   -1.8096   -0.4554   -3.8533 C   0  0  0  0  0  0  0  0  0  0  0  0
   -2.6718   -0.3334   -4.3394 H   0  0  0  0  0  0  0  0  0  0  0  0
   -1.2045   -1.0477   -4.3796 H   0  0  0  0  0  0  0  0  0  0  0  0
   -1.9794   -0.8549   -2.9554 H   0  0  0  0  0  0  0  0  0  0  0  0
  1  5  1  0
  5  8  1  0
  1  2  1  0
  1  3  1  0
  1  4  1  0
  5  6  1  0
  5  7  1  0
  8  9  1  0
  8 10  1  0
  8 11  1  0
 12 16  1  0
 16 17  1  0
 12 13  1  0
 12 14  1  0
 12 15  1  0
 17 18  1  0
 17 19  1  0
 17 20  1  0
M  CHG  1   8   1
M  END
>  <PDB_ID>  (1042) 
pdb4g3h

>  <RESIDUE_NAME>  (1042) 
LYS   MET

>  <FRAG_NAME>  (1042) 
ETAM   MSM

>  <FRAG_ATOM_NUM>  (1042) 
fragi: 11  fragj: 9

>  <atom.prop.CHAIN_ID>  (1042) 
A A A A A A A A A A A Z Z Z Z Z Z Z Z Z

>  <atom.prop.IS_HEAVY_ATOM>  (1042) 
1 0 0 0 1 0 0 1 0 0 0 1 0 0 0 1 1 0 0 0

>  <DIFUSE_FUNC_ATOM>  (1042) 
n/a

>  <FINAL_SINGLE_POINT_ENERGY>  (1042) 
0

>  <NONCOV_INTER_ENERGY_QM>  (1042) 
0

>  <FF_Energy>  (1042) 
-4.82

>  <QM_Energy>  (1042) 
-13.27

>  <source>  (1042) 
ETAM_MSM

>  <Index>  (1042) 
6371

$$$$
ETAM-pdb4g1g-B-LYS-119:MSM-pdb4g1g-B-MET-127
     RDKit          3D

 20 18  0  0  0  0  0  0  0  0999 V2000
    1.2499    0.8563   -0.0000 C   0  0  0  0  0  0  0  0  0  0  0  0
    2.0394    0.2751    0.2393 H   0  0  0  0  0  0  0  0  0  0  0  0
    1.1557    1.5649    0.7115 H   0  0  0  0  0  0  0  0  0  0  0  0
    1.4689    1.3518   -0.9458 H   0  0  0  0  0  0  0  0  0  0  0  0
    0.0000    0.0000    0.0000 C   0  0  0  0  0  0  0  0  0  0  0  0
    0.0083   -0.5912   -0.8164 H   0  0  0  0  0  0  0  0  0  0  0  0
    0.0081   -0.5912    0.8166 H   0  0  0  0  0  0  0  0  0  0  0  0
   -1.2499    0.8080   -0.0000 N   0  0  0  0  0  4  0  0  0  0  0  0
   -1.8902    0.4278    0.6665 H   0  0  0  0  0  0  0  0  0  0  0  0
   -1.0343    1.7531    0.2439 H   0  0  0  0  0  0  0  0  0  0  0  0
   -1.6607    0.7829   -0.9113 H   0  0  0  0  0  0  0  0  0  0  0  0
    4.9144    2.2832    3.8655 C   0  0  0  0  0  0  0  0  0  0  0  0
    4.4481    2.6258    4.7796 H   0  0  0  0  0  0  0  0  0  0  0  0
    5.8037    2.8978    3.9124 H   0  0  0  0  0  0  0  0  0  0  0  0
    5.2358    1.2576    4.0477 H   0  0  0  0  0  0  0  0  0  0  0  0
    3.8954    2.8063    2.4355 S   0  0  0  0  0  0  0  0  0  0  0  0
    3.2192    1.2408    1.9734 C   0  0  0  0  0  0  0  0  0  0  0  0
    2.2149    1.2742    1.9999 H   0  0  0  0  0  0  0  0  0  0  0  0
    3.5088    0.9980    1.0414 H   0  0  0  0  0  0  0  0  0  0  0  0
    3.5346    0.5249    2.6051 H   0  0  0  0  0  0  0  0  0  0  0  0
  1  5  1  0
  5  8  1  0
  1  2  1  0
  1  3  1  0
  1  4  1  0
  5  6  1  0
  5  7  1  0
  8  9  1  0
  8 10  1  0
  8 11  1  0
 12 16  1  0
 16 17  1  0
 12 13  1  0
 12 14  1  0
 12 15  1  0
 17 18  1  0
 17 19  1  0
 17 20  1  0
M  CHG  1   8   1
M  END
>  <PDB_ID>  (1043) 
pdb4g1g

>  <RESIDUE_NAME>  (1043) 
LYS   MET

>  <FRAG_NAME>  (1043) 
ETAM   MSM

>  <FRAG_ATOM_NUM>  (1043) 
fragi: 11  fragj: 9

>  <atom.prop.CHAIN_ID>  (1043) 
A A A A A A A A A A A Z Z Z Z Z Z Z Z Z

>  <atom.prop.IS_HEAVY_ATOM>  (1043) 
1 0 0 0 1 0 0 1 0 0 0 1 0 0 0 1 1 0 0 0

>  <DIFUSE_FUNC_ATOM>  (1043) 
n/a

>  <FINAL_SINGLE_POINT_ENERGY>  (1043) 
0

>  <NONCOV_INTER_ENERGY_QM>  (1043) 
0

>  <FF_Energy>  (1043) 
22.52

>  <QM_Energy>  (1043) 
8.87

>  <source>  (1043) 
ETAM_MSM

>  <Index>  (1043) 
6372

$$$$
ETAM-pdb4g59-A-LYS-154:MSM-pdb4g59-A-MET-127
     RDKit          3D

 20 18  0  0  0  0  0  0  0  0999 V2000
    1.2183    0.8875   -0.0000 C   0  0  0  0  0  0  0  0  0  0  0  0
    1.1425    1.5422    0.7447 H   0  0  0  0  0  0  0  0  0  0  0  0
    1.2747    1.3602   -0.8729 H   0  0  0  0  0  0  0  0  0  0  0  0
    2.1296    0.3061    0.1403 H   0  0  0  0  0  0  0  0  0  0  0  0
    0.0000    0.0000    0.0000 C   0  0  0  0  0  0  0  0  0  0  0  0
    0.0069   -0.5685   -0.8164 H   0  0  0  0  0  0  0  0  0  0  0  0
    0.0060   -0.5693    0.8165 H   0  0  0  0  0  0  0  0  0  0  0  0
   -1.2183    0.8437    0.0000 N   0  0  0  0  0  4  0  0  0  0  0  0
   -1.1810    1.4861   -0.7657 H   0  0  0  0  0  0  0  0  0  0  0  0
   -2.0278    0.2633   -0.0931 H   0  0  0  0  0  0  0  0  0  0  0  0
   -1.2720    1.3532    0.8590 H   0  0  0  0  0  0  0  0  0  0  0  0
   -1.3300    0.9866    4.5301 C   0  0  0  0  0  0  0  0  0  0  0  0
   -1.5613    0.0449    4.7923 H   0  0  0  0  0  0  0  0  0  0  0  0
   -2.0988    1.3755    4.0144 H   0  0  0  0  0  0  0  0  0  0  0  0
   -1.1541    1.5812    5.4266 H   0  0  0  0  0  0  0  0  0  0  0  0
    0.1748    1.0260    3.5599 S   0  0  0  0  0  0  0  0  0  0  0  0
    0.2265    2.7873    3.2466 C   0  0  0  0  0  0  0  0  0  0  0  0
   -0.5519    3.2312    3.6930 H   0  0  0  0  0  0  0  0  0  0  0  0
    1.0785    3.1692    3.6099 H   0  0  0  0  0  0  0  0  0  0  0  0
    0.1826    2.9551    2.2609 H   0  0  0  0  0  0  0  0  0  0  0  0
  1  5  1  0
  5  8  1  0
  1  2  1  0
  1  3  1  0
  1  4  1  0
  5  6  1  0
  5  7  1  0
  8  9  1  0
  8 10  1  0
  8 11  1  0
 12 16  1  0
 16 17  1  0
 12 13  1  0
 12 14  1  0
 12 15  1  0
 17 18  1  0
 17 19  1  0
 17 20  1  0
M  CHG  1   8   1
M  END
>  <PDB_ID>  (1044) 
pdb4g59

>  <RESIDUE_NAME>  (1044) 
LYS   MET

>  <FRAG_NAME>  (1044) 
ETAM   MSM

>  <FRAG_ATOM_NUM>  (1044) 
fragi: 11  fragj: 9

>  <atom.prop.CHAIN_ID>  (1044) 
A A A A A A A A A A A Z Z Z Z Z Z Z Z Z

>  <atom.prop.IS_HEAVY_ATOM>  (1044) 
1 0 0 0 1 0 0 1 0 0 0 1 0 0 0 1 1 0 0 0

>  <DIFUSE_FUNC_ATOM>  (1044) 
n/a

>  <FINAL_SINGLE_POINT_ENERGY>  (1044) 
0

>  <NONCOV_INTER_ENERGY_QM>  (1044) 
0

>  <FF_Energy>  (1044) 
-3.92

>  <QM_Energy>  (1044) 
-10.09

>  <source>  (1044) 
ETAM_MSM

>  <Index>  (1044) 
6377

$$$$
ETAM-pdb4g7n-A-LYS-501:MSM-pdb4g7n-A-MET-517
     RDKit          3D

 20 18  0  0  0  0  0  0  0  0999 V2000
    1.2678    0.8727   -0.0000 C   0  0  0  0  0  0  0  0  0  0  0  0
    1.2324    1.4772    0.7826 H   0  0  0  0  0  0  0  0  0  0  0  0
    1.2973    1.3835   -0.8466 H   0  0  0  0  0  0  0  0  0  0  0  0
    2.1668    0.2604    0.0716 H   0  0  0  0  0  0  0  0  0  0  0  0
    0.0000    0.0000    0.0000 C   0  0  0  0  0  0  0  0  0  0  0  0
    0.0193   -0.5902   -0.8161 H   0  0  0  0  0  0  0  0  0  0  0  0
    0.0190   -0.5894    0.8167 H   0  0  0  0  0  0  0  0  0  0  0  0
   -1.2678    0.7953   -0.0000 N   0  0  0  0  0  4  0  0  0  0  0  0
   -1.4695    1.0906   -0.9322 H   0  0  0  0  0  0  0  0  0  0  0  0
   -2.0124    0.2246    0.3420 H   0  0  0  0  0  0  0  0  0  0  0  0
   -1.1548    1.5924    0.5899 H   0  0  0  0  0  0  0  0  0  0  0  0
   -1.4074    4.6396   -1.3015 C   0  0  0  0  0  0  0  0  0  0  0  0
   -0.9514    4.6449   -0.3907 H   0  0  0  0  0  0  0  0  0  0  0  0
   -2.4020    4.5070   -1.1277 H   0  0  0  0  0  0  0  0  0  0  0  0
   -1.2626    5.6140   -1.7680 H   0  0  0  0  0  0  0  0  0  0  0  0
   -0.7534    3.2849   -2.3353 S   0  0  0  0  0  0  0  0  0  0  0  0
   -1.9621    3.1942   -3.6707 C   0  0  0  0  0  0  0  0  0  0  0  0
   -2.6838    2.5510   -3.4188 H   0  0  0  0  0  0  0  0  0  0  0  0
   -2.3556    4.0998   -3.8214 H   0  0  0  0  0  0  0  0  0  0  0  0
   -1.5093    2.8818   -4.5047 H   0  0  0  0  0  0  0  0  0  0  0  0
  1  5  1  0
  5  8  1  0
  1  2  1  0
  1  3  1  0
  1  4  1  0
  5  6  1  0
  5  7  1  0
  8  9  1  0
  8 10  1  0
  8 11  1  0
 12 16  1  0
 16 17  1  0
 12 13  1  0
 12 14  1  0
 12 15  1  0
 17 18  1  0
 17 19  1  0
 17 20  1  0
M  CHG  1   8   1
M  END
>  <PDB_ID>  (1045) 
pdb4g7n

>  <RESIDUE_NAME>  (1045) 
LYS   MET

>  <FRAG_NAME>  (1045) 
ETAM   MSM

>  <FRAG_ATOM_NUM>  (1045) 
fragi: 11  fragj: 9

>  <atom.prop.CHAIN_ID>  (1045) 
A A A A A A A A A A A Z Z Z Z Z Z Z Z Z

>  <atom.prop.IS_HEAVY_ATOM>  (1045) 
1 0 0 0 1 0 0 1 0 0 0 1 0 0 0 1 1 0 0 0

>  <DIFUSE_FUNC_ATOM>  (1045) 
n/a

>  <FINAL_SINGLE_POINT_ENERGY>  (1045) 
0

>  <NONCOV_INTER_ENERGY_QM>  (1045) 
0

>  <FF_Energy>  (1045) 
-5.1

>  <QM_Energy>  (1045) 
-13.84

>  <source>  (1045) 
ETAM_MSM

>  <Index>  (1045) 
6378

$$$$
ETAM-pdb4g7n-B-LYS-501:MSM-pdb4g7n-B-MET-517
     RDKit          3D

 20 18  0  0  0  0  0  0  0  0999 V2000
    1.2316    0.8926   -0.0000 C   0  0  0  0  0  0  0  0  0  0  0  0
    1.1480    1.5531    0.7414 H   0  0  0  0  0  0  0  0  0  0  0  0
    1.2834    1.3664   -0.8755 H   0  0  0  0  0  0  0  0  0  0  0  0
    2.1526    0.3275    0.1429 H   0  0  0  0  0  0  0  0  0  0  0  0
    0.0000    0.0000    0.0000 C   0  0  0  0  0  0  0  0  0  0  0  0
    0.0152   -0.5732   -0.8162 H   0  0  0  0  0  0  0  0  0  0  0  0
    0.0151   -0.5731    0.8167 H   0  0  0  0  0  0  0  0  0  0  0  0
   -1.2316    0.8264   -0.0000 N   0  0  0  0  0  4  0  0  0  0  0  0
   -1.9186    0.4009    0.5900 H   0  0  0  0  0  0  0  0  0  0  0  0
   -1.0194    1.7421    0.3429 H   0  0  0  0  0  0  0  0  0  0  0  0
   -1.5882    0.8938   -0.9319 H   0  0  0  0  0  0  0  0  0  0  0  0
   -1.7096    4.7823    0.0183 C   0  0  0  0  0  0  0  0  0  0  0  0
   -1.3823    4.4934    0.9470 H   0  0  0  0  0  0  0  0  0  0  0  0
   -2.7122    4.5681    0.0026 H   0  0  0  0  0  0  0  0  0  0  0  0
   -1.5844    5.8612   -0.0721 H   0  0  0  0  0  0  0  0  0  0  0  0
   -0.8424    3.8687   -1.2753 S   0  0  0  0  0  0  0  0  0  0  0  0
   -1.8721    4.2979   -2.6817 C   0  0  0  0  0  0  0  0  0  0  0  0
   -1.9211    3.5198   -3.3092 H   0  0  0  0  0  0  0  0  0  0  0  0
   -2.7927    4.5284   -2.3640 H   0  0  0  0  0  0  0  0  0  0  0  0
   -1.4776    5.0848   -3.1567 H   0  0  0  0  0  0  0  0  0  0  0  0
  1  5  1  0
  5  8  1  0
  1  2  1  0
  1  3  1  0
  1  4  1  0
  5  6  1  0
  5  7  1  0
  8  9  1  0
  8 10  1  0
  8 11  1  0
 12 16  1  0
 16 17  1  0
 12 13  1  0
 12 14  1  0
 12 15  1  0
 17 18  1  0
 17 19  1  0
 17 20  1  0
M  CHG  1   8   1
M  END
>  <PDB_ID>  (1046) 
pdb4g7n

>  <RESIDUE_NAME>  (1046) 
LYS   MET

>  <FRAG_NAME>  (1046) 
ETAM   MSM

>  <FRAG_ATOM_NUM>  (1046) 
fragi: 11  fragj: 9

>  <atom.prop.CHAIN_ID>  (1046) 
A A A A A A A A A A A Z Z Z Z Z Z Z Z Z

>  <atom.prop.IS_HEAVY_ATOM>  (1046) 
1 0 0 0 1 0 0 1 0 0 0 1 0 0 0 1 1 0 0 0

>  <DIFUSE_FUNC_ATOM>  (1046) 
n/a

>  <FINAL_SINGLE_POINT_ENERGY>  (1046) 
0

>  <NONCOV_INTER_ENERGY_QM>  (1046) 
0

>  <FF_Energy>  (1046) 
-5.24

>  <QM_Energy>  (1046) 
-12.86

>  <source>  (1046) 
ETAM_MSM

>  <Index>  (1046) 
6379

$$$$
ETAM-pdb4g84-A-LYS-100:MSM-pdb4g84-A-MET-104
     RDKit          3D

 20 18  0  0  0  0  0  0  0  0999 V2000
    1.2476    0.8673    0.0000 C   0  0  0  0  0  0  0  0  0  0  0  0
    1.1956    1.5008    0.7610 H   0  0  0  0  0  0  0  0  0  0  0  0
    1.2967    1.3550   -0.8617 H   0  0  0  0  0  0  0  0  0  0  0  0
    2.1441    0.2573    0.1116 H   0  0  0  0  0  0  0  0  0  0  0  0
    0.0000    0.0000    0.0000 C   0  0  0  0  0  0  0  0  0  0  0  0
    0.0098   -0.5858   -0.8163 H   0  0  0  0  0  0  0  0  0  0  0  0
    0.0094   -0.5858    0.8167 H   0  0  0  0  0  0  0  0  0  0  0  0
   -1.2476    0.8142   -0.0000 N   0  0  0  0  0  4  0  0  0  0  0  0
   -1.2760    1.3755   -0.8259 H   0  0  0  0  0  0  0  0  0  0  0  0
   -2.0399    0.2054    0.0195 H   0  0  0  0  0  0  0  0  0  0  0  0
   -1.2581    1.4042    0.8072 H   0  0  0  0  0  0  0  0  0  0  0  0
    1.3716   -3.5915   -2.8979 C   0  0  0  0  0  0  0  0  0  0  0  0
    0.9014   -4.1122   -3.6360 H   0  0  0  0  0  0  0  0  0  0  0  0
    1.0659   -3.9975   -2.0156 H   0  0  0  0  0  0  0  0  0  0  0  0
    2.4474   -3.7349   -2.9978 H   0  0  0  0  0  0  0  0  0  0  0  0
    0.9450   -1.8428   -2.9777 S   0  0  0  0  0  0  0  0  0  0  0  0
    2.1549   -1.2549   -4.1620 C   0  0  0  0  0  0  0  0  0  0  0  0
    3.0224   -1.0771   -3.6953 H   0  0  0  0  0  0  0  0  0  0  0  0
    2.2956   -1.9486   -4.8701 H   0  0  0  0  0  0  0  0  0  0  0  0
    1.8265   -0.4101   -4.5857 H   0  0  0  0  0  0  0  0  0  0  0  0
  1  5  1  0
  5  8  1  0
  1  2  1  0
  1  3  1  0
  1  4  1  0
  5  6  1  0
  5  7  1  0
  8  9  1  0
  8 10  1  0
  8 11  1  0
 12 16  1  0
 16 17  1  0
 12 13  1  0
 12 14  1  0
 12 15  1  0
 17 18  1  0
 17 19  1  0
 17 20  1  0
M  CHG  1   8   1
M  END
>  <PDB_ID>  (1047) 
pdb4g84

>  <RESIDUE_NAME>  (1047) 
LYS   MET

>  <FRAG_NAME>  (1047) 
ETAM   MSM

>  <FRAG_ATOM_NUM>  (1047) 
fragi: 11  fragj: 9

>  <atom.prop.CHAIN_ID>  (1047) 
A A A A A A A A A A A Z Z Z Z Z Z Z Z Z

>  <atom.prop.IS_HEAVY_ATOM>  (1047) 
1 0 0 0 1 0 0 1 0 0 0 1 0 0 0 1 1 0 0 0

>  <DIFUSE_FUNC_ATOM>  (1047) 
n/a

>  <FINAL_SINGLE_POINT_ENERGY>  (1047) 
0

>  <NONCOV_INTER_ENERGY_QM>  (1047) 
0

>  <FF_Energy>  (1047) 
-3.36

>  <QM_Energy>  (1047) 
-8.61

>  <source>  (1047) 
ETAM_MSM

>  <Index>  (1047) 
6384

$$$$
ETAM-pdb4g7a-B-LYS-39:MSM-pdb4g7a-B-MET-167
     RDKit          3D

 20 18  0  0  0  0  0  0  0  0999 V2000
    1.2469    0.8745   -0.0000 C   0  0  0  0  0  0  0  0  0  0  0  0
    1.1930    1.5042    0.7693 H   0  0  0  0  0  0  0  0  0  0  0  0
    1.2796    1.3803   -0.8572 H   0  0  0  0  0  0  0  0  0  0  0  0
    2.1578    0.2835    0.0946 H   0  0  0  0  0  0  0  0  0  0  0  0
    0.0000    0.0000    0.0000 C   0  0  0  0  0  0  0  0  0  0  0  0
    0.0138   -0.5844   -0.8165 H   0  0  0  0  0  0  0  0  0  0  0  0
    0.0135   -0.5840    0.8160 H   0  0  0  0  0  0  0  0  0  0  0  0
   -1.2469    0.8114   -0.0000 N   0  0  0  0  0  4  0  0  0  0  0  0
   -1.6988    0.7259   -0.8880 H   0  0  0  0  0  0  0  0  0  0  0  0
   -1.8570    0.4817    0.7192 H   0  0  0  0  0  0  0  0  0  0  0  0
   -1.0190    1.7701    0.1681 H   0  0  0  0  0  0  0  0  0  0  0  0
    0.2087    4.9053    1.5537 C   0  0  0  0  0  0  0  0  0  0  0  0
    0.5271    4.1029    2.1075 H   0  0  0  0  0  0  0  0  0  0  0  0
   -0.3287    5.4894    2.2030 H   0  0  0  0  0  0  0  0  0  0  0  0
    1.0844    5.4676    1.2294 H   0  0  0  0  0  0  0  0  0  0  0  0
   -0.8015    4.3768    0.1777 S   0  0  0  0  0  0  0  0  0  0  0  0
   -1.7849    5.8652   -0.1086 C   0  0  0  0  0  0  0  0  0  0  0  0
   -1.7668    6.0882   -1.0819 H   0  0  0  0  0  0  0  0  0  0  0  0
   -2.7254    5.6976    0.1817 H   0  0  0  0  0  0  0  0  0  0  0  0
   -1.3977    6.6207    0.4181 H   0  0  0  0  0  0  0  0  0  0  0  0
  1  5  1  0
  5  8  1  0
  1  2  1  0
  1  3  1  0
  1  4  1  0
  5  6  1  0
  5  7  1  0
  8  9  1  0
  8 10  1  0
  8 11  1  0
 12 16  1  0
 16 17  1  0
 12 13  1  0
 12 14  1  0
 12 15  1  0
 17 18  1  0
 17 19  1  0
 17 20  1  0
M  CHG  1   8   1
M  END
>  <PDB_ID>  (1048) 
pdb4g7a

>  <RESIDUE_NAME>  (1048) 
LYS   MET

>  <FRAG_NAME>  (1048) 
ETAM   MSM

>  <FRAG_ATOM_NUM>  (1048) 
fragi: 11  fragj: 9

>  <atom.prop.CHAIN_ID>  (1048) 
A A A A A A A A A A A Z Z Z Z Z Z Z Z Z

>  <atom.prop.IS_HEAVY_ATOM>  (1048) 
1 0 0 0 1 0 0 1 0 0 0 1 0 0 0 1 1 0 0 0

>  <DIFUSE_FUNC_ATOM>  (1048) 
n/a

>  <FINAL_SINGLE_POINT_ENERGY>  (1048) 
0

>  <NONCOV_INTER_ENERGY_QM>  (1048) 
0

>  <FF_Energy>  (1048) 
-5.78

>  <QM_Energy>  (1048) 
-13.91

>  <source>  (1048) 
ETAM_MSM

>  <Index>  (1048) 
6396

$$$$
ETAM-pdb3juu-B-LYS-201:MSM-pdb3juu-A-MET-235
     RDKit          3D

 20 18  0  0  0  0  0  0  0  0999 V2000
    1.2067    1.0299    0.0000 C   0  0  0  0  0  0  0  0  0  0  0  0
    0.9588    1.7776    0.6313 H   0  0  0  0  0  0  0  0  0  0  0  0
    1.2665    1.4158   -0.9305 H   0  0  0  0  0  0  0  0  0  0  0  0
    2.1890    0.6512    0.2822 H   0  0  0  0  0  0  0  0  0  0  0  0
    0.0000    0.0000    0.0000 C   0  0  0  0  0  0  0  0  0  0  0  0
    0.0043   -0.4719   -0.8167 H   0  0  0  0  0  0  0  0  0  0  0  0
    0.0043   -0.4724    0.8161 H   0  0  0  0  0  0  0  0  0  0  0  0
   -1.2067    0.9926   -0.0000 N   0  0  0  0  0  4  0  0  0  0  0  0
   -1.7971    0.7377    0.7499 H   0  0  0  0  0  0  0  0  0  0  0  0
   -0.8399    1.9019    0.1196 H   0  0  0  0  0  0  0  0  0  0  0  0
   -1.6657    0.8988   -0.8700 H   0  0  0  0  0  0  0  0  0  0  0  0
    1.3311    4.4197   -1.8930 C   0  0  0  0  0  0  0  0  0  0  0  0
    2.1442    3.9837   -1.4645 H   0  0  0  0  0  0  0  0  0  0  0  0
    1.6280    5.3384   -2.2145 H   0  0  0  0  0  0  0  0  0  0  0  0
    1.0213    3.8247   -2.7522 H   0  0  0  0  0  0  0  0  0  0  0  0
   -0.0139    4.5744   -0.6895 S   0  0  0  0  0  0  0  0  0  0  0  0
    0.8613    5.2305    0.7901 C   0  0  0  0  0  0  0  0  0  0  0  0
    0.2571    5.8698    1.2516 H   0  0  0  0  0  0  0  0  0  0  0  0
    1.0830    4.4671    1.3846 H   0  0  0  0  0  0  0  0  0  0  0  0
    1.6881    5.6887    0.4854 H   0  0  0  0  0  0  0  0  0  0  0  0
  1  5  1  0
  5  8  1  0
  1  2  1  0
  1  3  1  0
  1  4  1  0
  5  6  1  0
  5  7  1  0
  8  9  1  0
  8 10  1  0
  8 11  1  0
 12 16  1  0
 16 17  1  0
 12 13  1  0
 12 14  1  0
 12 15  1  0
 17 18  1  0
 17 19  1  0
 17 20  1  0
M  CHG  1   8   1
M  END
>  <PDB_ID>  (1049) 
pdb3juu

>  <RESIDUE_NAME>  (1049) 
LYS   MET

>  <FRAG_NAME>  (1049) 
ETAM   MSM

>  <FRAG_ATOM_NUM>  (1049) 
fragi: 11  fragj: 9

>  <atom.prop.CHAIN_ID>  (1049) 
A A A A A A A A A A A Z Z Z Z Z Z Z Z Z

>  <atom.prop.IS_HEAVY_ATOM>  (1049) 
1 0 0 0 1 0 0 1 0 0 0 1 0 0 0 1 1 0 0 0

>  <DIFUSE_FUNC_ATOM>  (1049) 
n/a

>  <FINAL_SINGLE_POINT_ENERGY>  (1049) 
0

>  <NONCOV_INTER_ENERGY_QM>  (1049) 
0

>  <FF_Energy>  (1049) 
-4.93

>  <QM_Energy>  (1049) 
-12.51

>  <source>  (1049) 
ETAM_MSM

>  <Index>  (1049) 
6410

$$$$
ETAM-pdb4gec-A-LYS-70:MSM-pdb4gec-A-MET-1
     RDKit          3D

 20 18  0  0  0  0  0  0  0  0999 V2000
    1.2527    0.8591    0.0000 C   0  0  0  0  0  0  0  0  0  0  0  0
    1.2521    1.4204    0.8218 H   0  0  0  0  0  0  0  0  0  0  0  0
    1.2410    1.4360   -0.8108 H   0  0  0  0  0  0  0  0  0  0  0  0
    2.1547    0.2472   -0.0111 H   0  0  0  0  0  0  0  0  0  0  0  0
    0.0000    0.0000    0.0000 C   0  0  0  0  0  0  0  0  0  0  0  0
    0.0086   -0.5899   -0.8160 H   0  0  0  0  0  0  0  0  0  0  0  0
    0.0083   -0.5899    0.8162 H   0  0  0  0  0  0  0  0  0  0  0  0
   -1.2527    0.8097   -0.0000 N   0  0  0  0  0  4  0  0  0  0  0  0
   -2.0394    0.2002    0.0850 H   0  0  0  0  0  0  0  0  0  0  0  0
   -1.2346    1.4446    0.7702 H   0  0  0  0  0  0  0  0  0  0  0  0
   -1.3146    1.3210   -0.8563 H   0  0  0  0  0  0  0  0  0  0  0  0
    0.6450    2.9607    3.0272 C   0  0  0  0  0  0  0  0  0  0  0  0
    0.7156    3.4849    2.1316 H   0  0  0  0  0  0  0  0  0  0  0  0
    1.1255    2.0618    2.8188 H   0  0  0  0  0  0  0  0  0  0  0  0
    1.2329    3.4921    3.7755 H   0  0  0  0  0  0  0  0  0  0  0  0
   -1.1102    2.6537    3.4385 S   0  0  0  0  0  0  0  0  0  0  0  0
   -0.9619    1.3261    4.6991 C   0  0  0  0  0  0  0  0  0  0  0  0
   -1.8772    1.0476    4.9697 H   0  0  0  0  0  0  0  0  0  0  0  0
   -0.4703    0.5637    4.2939 H   0  0  0  0  0  0  0  0  0  0  0  0
   -0.4623    1.6887    5.4777 H   0  0  0  0  0  0  0  0  0  0  0  0
  1  5  1  0
  5  8  1  0
  1  2  1  0
  1  3  1  0
  1  4  1  0
  5  6  1  0
  5  7  1  0
  8  9  1  0
  8 10  1  0
  8 11  1  0
 12 16  1  0
 16 17  1  0
 12 13  1  0
 12 14  1  0
 12 15  1  0
 17 18  1  0
 17 19  1  0
 17 20  1  0
M  CHG  1   8   1
M  END
>  <PDB_ID>  (1050) 
pdb4gec

>  <RESIDUE_NAME>  (1050) 
LYS   MET

>  <FRAG_NAME>  (1050) 
ETAM   MSM

>  <FRAG_ATOM_NUM>  (1050) 
fragi: 11  fragj: 9

>  <atom.prop.CHAIN_ID>  (1050) 
A A A A A A A A A A A Z Z Z Z Z Z Z Z Z

>  <atom.prop.IS_HEAVY_ATOM>  (1050) 
1 0 0 0 1 0 0 1 0 0 0 1 0 0 0 1 1 0 0 0

>  <DIFUSE_FUNC_ATOM>  (1050) 
n/a

>  <FINAL_SINGLE_POINT_ENERGY>  (1050) 
0

>  <NONCOV_INTER_ENERGY_QM>  (1050) 
0

>  <FF_Energy>  (1050) 
-3.35

>  <QM_Energy>  (1050) 
-10.55

>  <source>  (1050) 
ETAM_MSM

>  <Index>  (1050) 
6412

$$$$
ETAM-pdb3jva-A-LYS-264:MSM-pdb3jva-A-MET-293
     RDKit          3D

 20 18  0  0  0  0  0  0  0  0999 V2000
    1.2442    0.8797    0.0000 C   0  0  0  0  0  0  0  0  0  0  0  0
    1.2374    1.4350    0.8233 H   0  0  0  0  0  0  0  0  0  0  0  0
    1.2247    1.4530   -0.8098 H   0  0  0  0  0  0  0  0  0  0  0  0
    2.1505    0.2742   -0.0134 H   0  0  0  0  0  0  0  0  0  0  0  0
    0.0000    0.0000    0.0000 C   0  0  0  0  0  0  0  0  0  0  0  0
    0.0152   -0.5814   -0.8160 H   0  0  0  0  0  0  0  0  0  0  0  0
    0.0143   -0.5813    0.8159 H   0  0  0  0  0  0  0  0  0  0  0  0
   -1.2442    0.8152   -0.0000 N   0  0  0  0  0  4  0  0  0  0  0  0
   -1.4838    1.0553    0.9409 H   0  0  0  0  0  0  0  0  0  0  0  0
   -1.0942    1.6492   -0.5300 H   0  0  0  0  0  0  0  0  0  0  0  0
   -1.9868    0.2869   -0.4106 H   0  0  0  0  0  0  0  0  0  0  0  0
    0.8536    4.4865   -3.0057 C   0  0  0  0  0  0  0  0  0  0  0  0
    1.6188    3.8150   -3.0168 H   0  0  0  0  0  0  0  0  0  0  0  0
    1.2768    5.4120   -2.9977 H   0  0  0  0  0  0  0  0  0  0  0  0
    0.2751    4.3733   -3.9226 H   0  0  0  0  0  0  0  0  0  0  0  0
   -0.1865    4.2467   -1.5528 S   0  0  0  0  0  0  0  0  0  0  0  0
    0.9011    4.8902   -0.2630 C   0  0  0  0  0  0  0  0  0  0  0  0
    0.4123    5.5848    0.2629 H   0  0  0  0  0  0  0  0  0  0  0  0
    1.1748    4.1422    0.3393 H   0  0  0  0  0  0  0  0  0  0  0  0
    1.7098    5.2947   -0.6868 H   0  0  0  0  0  0  0  0  0  0  0  0
  1  5  1  0
  5  8  1  0
  1  2  1  0
  1  3  1  0
  1  4  1  0
  5  6  1  0
  5  7  1  0
  8  9  1  0
  8 10  1  0
  8 11  1  0
 12 16  1  0
 16 17  1  0
 12 13  1  0
 12 14  1  0
 12 15  1  0
 17 18  1  0
 17 19  1  0
 17 20  1  0
M  CHG  1   8   1
M  END
>  <PDB_ID>  (1051) 
pdb3jva

>  <RESIDUE_NAME>  (1051) 
LYS   MET

>  <FRAG_NAME>  (1051) 
ETAM   MSM

>  <FRAG_ATOM_NUM>  (1051) 
fragi: 11  fragj: 9

>  <atom.prop.CHAIN_ID>  (1051) 
A A A A A A A A A A A Z Z Z Z Z Z Z Z Z

>  <atom.prop.IS_HEAVY_ATOM>  (1051) 
1 0 0 0 1 0 0 1 0 0 0 1 0 0 0 1 1 0 0 0

>  <DIFUSE_FUNC_ATOM>  (1051) 
n/a

>  <FINAL_SINGLE_POINT_ENERGY>  (1051) 
0

>  <NONCOV_INTER_ENERGY_QM>  (1051) 
0

>  <FF_Energy>  (1051) 
-4.92

>  <QM_Energy>  (1051) 
-12.18

>  <source>  (1051) 
ETAM_MSM

>  <Index>  (1051) 
6420

$$$$
ETAM-pdb3jva-E-LYS-264:MSM-pdb3jva-E-MET-293
     RDKit          3D

 20 18  0  0  0  0  0  0  0  0999 V2000
    1.2477    0.8740   -0.0000 C   0  0  0  0  0  0  0  0  0  0  0  0
    1.2515    1.4192    0.8306 H   0  0  0  0  0  0  0  0  0  0  0  0
    1.2226    1.4593   -0.8017 H   0  0  0  0  0  0  0  0  0  0  0  0
    2.1536    0.2684   -0.0298 H   0  0  0  0  0  0  0  0  0  0  0  0
    0.0000    0.0000    0.0000 C   0  0  0  0  0  0  0  0  0  0  0  0
    0.0133   -0.5835   -0.8169 H   0  0  0  0  0  0  0  0  0  0  0  0
    0.0129   -0.5838    0.8163 H   0  0  0  0  0  0  0  0  0  0  0  0
   -1.2477    0.8135   -0.0000 N   0  0  0  0  0  4  0  0  0  0  0  0
   -1.2402    1.4305    0.7862 H   0  0  0  0  0  0  0  0  0  0  0  0
   -1.2953    1.3462   -0.8449 H   0  0  0  0  0  0  0  0  0  0  0  0
   -2.0396    0.2055    0.0584 H   0  0  0  0  0  0  0  0  0  0  0  0
    0.7525    4.4236   -3.0688 C   0  0  0  0  0  0  0  0  0  0  0  0
    1.5238    3.7634   -3.0915 H   0  0  0  0  0  0  0  0  0  0  0  0
    1.1573    5.3550   -3.0838 H   0  0  0  0  0  0  0  0  0  0  0  0
    0.1459    4.2874   -3.9642 H   0  0  0  0  0  0  0  0  0  0  0  0
   -0.2504    4.1862   -1.5927 S   0  0  0  0  0  0  0  0  0  0  0  0
    0.8882    4.7629   -0.3082 C   0  0  0  0  0  0  0  0  0  0  0  0
    1.7538    4.2741   -0.3962 H   0  0  0  0  0  0  0  0  0  0  0  0
    1.0390    5.7430   -0.4224 H   0  0  0  0  0  0  0  0  0  0  0  0
    0.4867    4.5840    0.5876 H   0  0  0  0  0  0  0  0  0  0  0  0
  1  5  1  0
  5  8  1  0
  1  2  1  0
  1  3  1  0
  1  4  1  0
  5  6  1  0
  5  7  1  0
  8  9  1  0
  8 10  1  0
  8 11  1  0
 12 16  1  0
 16 17  1  0
 12 13  1  0
 12 14  1  0
 12 15  1  0
 17 18  1  0
 17 19  1  0
 17 20  1  0
M  CHG  1   8   1
M  END
>  <PDB_ID>  (1052) 
pdb3jva

>  <RESIDUE_NAME>  (1052) 
LYS   MET

>  <FRAG_NAME>  (1052) 
ETAM   MSM

>  <FRAG_ATOM_NUM>  (1052) 
fragi: 11  fragj: 9

>  <atom.prop.CHAIN_ID>  (1052) 
A A A A A A A A A A A Z Z Z Z Z Z Z Z Z

>  <atom.prop.IS_HEAVY_ATOM>  (1052) 
1 0 0 0 1 0 0 1 0 0 0 1 0 0 0 1 1 0 0 0

>  <DIFUSE_FUNC_ATOM>  (1052) 
n/a

>  <FINAL_SINGLE_POINT_ENERGY>  (1052) 
0

>  <NONCOV_INTER_ENERGY_QM>  (1052) 
0

>  <FF_Energy>  (1052) 
-4.87

>  <QM_Energy>  (1052) 
-11.37

>  <source>  (1052) 
ETAM_MSM

>  <Index>  (1052) 
6423

$$$$
ETAM-pdb4gfi-F-LYS-246:MSM-pdb4gfi-F-MET-275
     RDKit          3D

 20 18  0  0  0  0  0  0  0  0999 V2000
    1.2009    0.9076   -0.0000 C   0  0  0  0  0  0  0  0  0  0  0  0
    1.1942    1.4525    0.8295 H   0  0  0  0  0  0  0  0  0  0  0  0
    1.1664    1.4883   -0.8035 H   0  0  0  0  0  0  0  0  0  0  0  0
    2.1190    0.3206   -0.0281 H   0  0  0  0  0  0  0  0  0  0  0  0
    0.0000    0.0000    0.0000 C   0  0  0  0  0  0  0  0  0  0  0  0
    0.0186   -0.5647   -0.8161 H   0  0  0  0  0  0  0  0  0  0  0  0
    0.0180   -0.5653    0.8162 H   0  0  0  0  0  0  0  0  0  0  0  0
   -1.2009    0.8352   -0.0000 N   0  0  0  0  0  4  0  0  0  0  0  0
   -1.0634    1.6363    0.5893 H   0  0  0  0  0  0  0  0  0  0  0  0
   -1.4027    1.1489   -0.9326 H   0  0  0  0  0  0  0  0  0  0  0  0
   -1.9854    0.3107    0.3432 H   0  0  0  0  0  0  0  0  0  0  0  0
    0.5371    5.4301   -1.1215 C   0  0  0  0  0  0  0  0  0  0  0  0
    1.3067    4.7808   -1.2285 H   0  0  0  0  0  0  0  0  0  0  0  0
    0.8972    6.2518   -0.6521 H   0  0  0  0  0  0  0  0  0  0  0  0
    0.1699    5.7136   -2.1078 H   0  0  0  0  0  0  0  0  0  0  0  0
   -0.7983    4.6801   -0.1555 S   0  0  0  0  0  0  0  0  0  0  0  0
   -0.0748    4.6915    1.4864 C   0  0  0  0  0  0  0  0  0  0  0  0
    0.9227    4.6900    1.4120 H   0  0  0  0  0  0  0  0  0  0  0  0
   -0.3708    5.5124    1.9766 H   0  0  0  0  0  0  0  0  0  0  0  0
   -0.3725    3.8788    1.9888 H   0  0  0  0  0  0  0  0  0  0  0  0
  1  5  1  0
  5  8  1  0
  1  2  1  0
  1  3  1  0
  1  4  1  0
  5  6  1  0
  5  7  1  0
  8  9  1  0
  8 10  1  0
  8 11  1  0
 12 16  1  0
 16 17  1  0
 12 13  1  0
 12 14  1  0
 12 15  1  0
 17 18  1  0
 17 19  1  0
 17 20  1  0
M  CHG  1   8   1
M  END
>  <PDB_ID>  (1053) 
pdb4gfi

>  <RESIDUE_NAME>  (1053) 
LYS   MET

>  <FRAG_NAME>  (1053) 
ETAM   MSM

>  <FRAG_ATOM_NUM>  (1053) 
fragi: 11  fragj: 9

>  <atom.prop.CHAIN_ID>  (1053) 
A A A A A A A A A A A Z Z Z Z Z Z Z Z Z

>  <atom.prop.IS_HEAVY_ATOM>  (1053) 
1 0 0 0 1 0 0 1 0 0 0 1 0 0 0 1 1 0 0 0

>  <DIFUSE_FUNC_ATOM>  (1053) 
n/a

>  <FINAL_SINGLE_POINT_ENERGY>  (1053) 
0

>  <NONCOV_INTER_ENERGY_QM>  (1053) 
0

>  <FF_Energy>  (1053) 
-4.32

>  <QM_Energy>  (1053) 
-9.96

>  <source>  (1053) 
ETAM_MSM

>  <Index>  (1053) 
6425

$$$$
ETAM-pdb4gfi-G-LYS-246:MSM-pdb4gfi-G-MET-275
     RDKit          3D

 20 18  0  0  0  0  0  0  0  0999 V2000
    1.2284    0.8794    0.0000 C   0  0  0  0  0  0  0  0  0  0  0  0
    1.1684    1.5149    0.7619 H   0  0  0  0  0  0  0  0  0  0  0  0
    1.2690    1.3738   -0.8619 H   0  0  0  0  0  0  0  0  0  0  0  0
    2.1358    0.2853    0.1084 H   0  0  0  0  0  0  0  0  0  0  0  0
    0.0000    0.0000    0.0000 C   0  0  0  0  0  0  0  0  0  0  0  0
    0.0118   -0.5787   -0.8161 H   0  0  0  0  0  0  0  0  0  0  0  0
    0.0115   -0.5782    0.8164 H   0  0  0  0  0  0  0  0  0  0  0  0
   -1.2284    0.8232   -0.0000 N   0  0  0  0  0  4  0  0  0  0  0  0
   -1.0951    1.6254   -0.5837 H   0  0  0  0  0  0  0  0  0  0  0  0
   -1.9951    0.2831   -0.3502 H   0  0  0  0  0  0  0  0  0  0  0  0
   -1.4328    1.1219    0.9333 H   0  0  0  0  0  0  0  0  0  0  0  0
    0.6696    5.3371   -1.6242 C   0  0  0  0  0  0  0  0  0  0  0  0
    1.5025    4.7507   -1.5377 H   0  0  0  0  0  0  0  0  0  0  0  0
    0.9349    6.2578   -1.2691 H   0  0  0  0  0  0  0  0  0  0  0  0
    0.4133    5.4277   -2.6798 H   0  0  0  0  0  0  0  0  0  0  0  0
   -0.6921    4.6544   -0.6650 S   0  0  0  0  0  0  0  0  0  0  0  0
   -0.0474    4.7893    1.0082 C   0  0  0  0  0  0  0  0  0  0  0  0
    0.9456    4.6756    0.9920 H   0  0  0  0  0  0  0  0  0  0  0  0
   -0.2751    5.6890    1.3801 H   0  0  0  0  0  0  0  0  0  0  0  0
   -0.4563    4.0781    1.5798 H   0  0  0  0  0  0  0  0  0  0  0  0
  1  5  1  0
  5  8  1  0
  1  2  1  0
  1  3  1  0
  1  4  1  0
  5  6  1  0
  5  7  1  0
  8  9  1  0
  8 10  1  0
  8 11  1  0
 12 16  1  0
 16 17  1  0
 12 13  1  0
 12 14  1  0
 12 15  1  0
 17 18  1  0
 17 19  1  0
 17 20  1  0
M  CHG  1   8   1
M  END
>  <PDB_ID>  (1054) 
pdb4gfi

>  <RESIDUE_NAME>  (1054) 
LYS   MET

>  <FRAG_NAME>  (1054) 
ETAM   MSM

>  <FRAG_ATOM_NUM>  (1054) 
fragi: 11  fragj: 9

>  <atom.prop.CHAIN_ID>  (1054) 
A A A A A A A A A A A Z Z Z Z Z Z Z Z Z

>  <atom.prop.IS_HEAVY_ATOM>  (1054) 
1 0 0 0 1 0 0 1 0 0 0 1 0 0 0 1 1 0 0 0

>  <DIFUSE_FUNC_ATOM>  (1054) 
n/a

>  <FINAL_SINGLE_POINT_ENERGY>  (1054) 
0

>  <NONCOV_INTER_ENERGY_QM>  (1054) 
0

>  <FF_Energy>  (1054) 
-4.29

>  <QM_Energy>  (1054) 
-10.75

>  <source>  (1054) 
ETAM_MSM

>  <Index>  (1054) 
6426

$$$$
ETAM-pdb4gi6-A-LYS-192:MSM-pdb4gi6-A-MET-79
     RDKit          3D

 20 18  0  0  0  0  0  0  0  0999 V2000
    1.2798    0.8190    0.0000 C   0  0  0  0  0  0  0  0  0  0  0  0
    1.3383    1.3181   -0.8665 H   0  0  0  0  0  0  0  0  0  0  0  0
    2.0577    0.1932    0.0747 H   0  0  0  0  0  0  0  0  0  0  0  0
    1.3281    1.5363    0.8193 H   0  0  0  0  0  0  0  0  0  0  0  0
    0.0000    0.0000    0.0000 C   0  0  0  0  0  0  0  0  0  0  0  0
    0.0009   -0.6107   -0.8163 H   0  0  0  0  0  0  0  0  0  0  0  0
    0.0009   -0.6106    0.8168 H   0  0  0  0  0  0  0  0  0  0  0  0
   -1.2798    0.7875   -0.0000 N   0  0  0  0  0  4  0  0  0  0  0  0
   -1.2506    1.4550   -0.7406 H   0  0  0  0  0  0  0  0  0  0  0  0
   -2.0455    0.1625   -0.1349 H   0  0  0  0  0  0  0  0  0  0  0  0
   -1.3729    1.2551    0.8759 H   0  0  0  0  0  0  0  0  0  0  0  0
   -3.6304   -0.9244   -2.8203 C   0  0  0  0  0  0  0  0  0  0  0  0
   -3.5937    0.0324   -3.1806 H   0  0  0  0  0  0  0  0  0  0  0  0
   -4.0262   -0.8552   -1.8801 H   0  0  0  0  0  0  0  0  0  0  0  0
   -4.3248   -1.4923   -3.4396 H   0  0  0  0  0  0  0  0  0  0  0  0
   -1.9432   -1.6490   -2.7540 S   0  0  0  0  0  0  0  0  0  0  0  0
   -1.3016   -1.1077   -4.3403 C   0  0  0  0  0  0  0  0  0  0  0  0
   -1.6701   -0.2036   -4.5591 H   0  0  0  0  0  0  0  0  0  0  0  0
   -0.3034   -1.0581   -4.2980 H   0  0  0  0  0  0  0  0  0  0  0  0
   -1.5730   -1.7591   -5.0497 H   0  0  0  0  0  0  0  0  0  0  0  0
  1  5  1  0
  5  8  1  0
  1  2  1  0
  1  3  1  0
  1  4  1  0
  5  6  1  0
  5  7  1  0
  8  9  1  0
  8 10  1  0
  8 11  1  0
 12 16  1  0
 16 17  1  0
 12 13  1  0
 12 14  1  0
 12 15  1  0
 17 18  1  0
 17 19  1  0
 17 20  1  0
M  CHG  1   8   1
M  END
>  <PDB_ID>  (1055) 
pdb4gi6

>  <RESIDUE_NAME>  (1055) 
LYS   MET

>  <FRAG_NAME>  (1055) 
ETAM   MSM

>  <FRAG_ATOM_NUM>  (1055) 
fragi: 11  fragj: 9

>  <atom.prop.CHAIN_ID>  (1055) 
A A A A A A A A A A A Z Z Z Z Z Z Z Z Z

>  <atom.prop.IS_HEAVY_ATOM>  (1055) 
1 0 0 0 1 0 0 1 0 0 0 1 0 0 0 1 1 0 0 0

>  <DIFUSE_FUNC_ATOM>  (1055) 
n/a

>  <FINAL_SINGLE_POINT_ENERGY>  (1055) 
0

>  <NONCOV_INTER_ENERGY_QM>  (1055) 
0

>  <FF_Energy>  (1055) 
-4.11

>  <QM_Energy>  (1055) 
-10.07

>  <source>  (1055) 
ETAM_MSM

>  <Index>  (1055) 
6438

$$$$
ETAM-pdb3jz4-A-LYS-99:MSM-pdb3jz4-A-MET-93
     RDKit          3D

 20 18  0  0  0  0  0  0  0  0999 V2000
    1.2853    0.8511   -0.0000 C   0  0  0  0  0  0  0  0  0  0  0  0
    1.2737    1.4363    0.7963 H   0  0  0  0  0  0  0  0  0  0  0  0
    1.3132    1.3764   -0.8360 H   0  0  0  0  0  0  0  0  0  0  0  0
    2.1721    0.2189    0.0450 H   0  0  0  0  0  0  0  0  0  0  0  0
    0.0000    0.0000    0.0000 C   0  0  0  0  0  0  0  0  0  0  0  0
    0.0125   -0.5991   -0.8160 H   0  0  0  0  0  0  0  0  0  0  0  0
    0.0117   -0.5987    0.8165 H   0  0  0  0  0  0  0  0  0  0  0  0
   -1.2853    0.7909    0.0000 N   0  0  0  0  0  4  0  0  0  0  0  0
   -2.0414    0.1745    0.1987 H   0  0  0  0  0  0  0  0  0  0  0  0
   -1.2265    1.4986    0.6994 H   0  0  0  0  0  0  0  0  0  0  0  0
   -1.4069    1.2057   -0.8978 H   0  0  0  0  0  0  0  0  0  0  0  0
    1.0525   -0.6582    4.5881 C   0  0  0  0  0  0  0  0  0  0  0  0
    1.7044   -0.7805    3.8222 H   0  0  0  0  0  0  0  0  0  0  0  0
    0.4118   -1.4424    4.5667 H   0  0  0  0  0  0  0  0  0  0  0  0
    1.5974   -0.6596    5.5322 H   0  0  0  0  0  0  0  0  0  0  0  0
    0.1580    0.8933    4.4151 S   0  0  0  0  0  0  0  0  0  0  0  0
    0.4361    1.1274    2.7202 C   0  0  0  0  0  0  0  0  0  0  0  0
   -0.1764    1.8392    2.3450 H   0  0  0  0  0  0  0  0  0  0  0  0
    1.3894    1.4163    2.5435 H   0  0  0  0  0  0  0  0  0  0  0  0
    0.2716    0.2747    2.2023 H   0  0  0  0  0  0  0  0  0  0  0  0
  1  5  1  0
  5  8  1  0
  1  2  1  0
  1  3  1  0
  1  4  1  0
  5  6  1  0
  5  7  1  0
  8  9  1  0
  8 10  1  0
  8 11  1  0
 12 16  1  0
 16 17  1  0
 12 13  1  0
 12 14  1  0
 12 15  1  0
 17 18  1  0
 17 19  1  0
 17 20  1  0
M  CHG  1   8   1
M  END
>  <PDB_ID>  (1056) 
pdb3jz4

>  <RESIDUE_NAME>  (1056) 
LYS   MET

>  <FRAG_NAME>  (1056) 
ETAM   MSM

>  <FRAG_ATOM_NUM>  (1056) 
fragi: 11  fragj: 9

>  <atom.prop.CHAIN_ID>  (1056) 
A A A A A A A A A A A Z Z Z Z Z Z Z Z Z

>  <atom.prop.IS_HEAVY_ATOM>  (1056) 
1 0 0 0 1 0 0 1 0 0 0 1 0 0 0 1 1 0 0 0

>  <DIFUSE_FUNC_ATOM>  (1056) 
n/a

>  <FINAL_SINGLE_POINT_ENERGY>  (1056) 
0

>  <NONCOV_INTER_ENERGY_QM>  (1056) 
0

>  <FF_Energy>  (1056) 
35.78

>  <QM_Energy>  (1056) 
9.24

>  <source>  (1056) 
ETAM_MSM

>  <Index>  (1056) 
6446

$$$$
ETAM-pdb3jz4-B-LYS-99:MSM-pdb3jz4-B-MET-93
     RDKit          3D

 20 18  0  0  0  0  0  0  0  0999 V2000
    1.2790    0.8737   -0.0000 C   0  0  0  0  0  0  0  0  0  0  0  0
    1.2394    1.4807    0.7788 H   0  0  0  0  0  0  0  0  0  0  0  0
    1.3094    1.3762   -0.8492 H   0  0  0  0  0  0  0  0  0  0  0  0
    2.1747    0.2575    0.0788 H   0  0  0  0  0  0  0  0  0  0  0  0
    0.0000    0.0000    0.0000 C   0  0  0  0  0  0  0  0  0  0  0  0
    0.0259   -0.5953   -0.8163 H   0  0  0  0  0  0  0  0  0  0  0  0
    0.0260   -0.5947    0.8167 H   0  0  0  0  0  0  0  0  0  0  0  0
   -1.2790    0.7793   -0.0000 N   0  0  0  0  0  4  0  0  0  0  0  0
   -1.0850    1.7263    0.2498 H   0  0  0  0  0  0  0  0  0  0  0  0
   -1.6820    0.7453   -0.9119 H   0  0  0  0  0  0  0  0  0  0  0  0
   -1.9073    0.3769    0.6634 H   0  0  0  0  0  0  0  0  0  0  0  0
    1.1209   -0.5563    4.6574 C   0  0  0  0  0  0  0  0  0  0  0  0
    1.7601   -0.6896    3.8755 H   0  0  0  0  0  0  0  0  0  0  0  0
    0.5183   -1.3783    4.6815 H   0  0  0  0  0  0  0  0  0  0  0  0
    1.7000   -0.5194    5.5801 H   0  0  0  0  0  0  0  0  0  0  0  0
    0.1691    0.9337    4.4624 S   0  0  0  0  0  0  0  0  0  0  0  0
    0.5313    1.2057    2.7766 C   0  0  0  0  0  0  0  0  0  0  0  0
    0.4459    2.1837    2.5450 H   0  0  0  0  0  0  0  0  0  0  0  0
    1.4723    0.9126    2.5598 H   0  0  0  0  0  0  0  0  0  0  0  0
   -0.1013    0.6875    2.1857 H   0  0  0  0  0  0  0  0  0  0  0  0
  1  5  1  0
  5  8  1  0
  1  2  1  0
  1  3  1  0
  1  4  1  0
  5  6  1  0
  5  7  1  0
  8  9  1  0
  8 10  1  0
  8 11  1  0
 12 16  1  0
 16 17  1  0
 12 13  1  0
 12 14  1  0
 12 15  1  0
 17 18  1  0
 17 19  1  0
 17 20  1  0
M  CHG  1   8   1
M  END
>  <PDB_ID>  (1057) 
pdb3jz4

>  <RESIDUE_NAME>  (1057) 
LYS   MET

>  <FRAG_NAME>  (1057) 
ETAM   MSM

>  <FRAG_ATOM_NUM>  (1057) 
fragi: 11  fragj: 9

>  <atom.prop.CHAIN_ID>  (1057) 
A A A A A A A A A A A Z Z Z Z Z Z Z Z Z

>  <atom.prop.IS_HEAVY_ATOM>  (1057) 
1 0 0 0 1 0 0 1 0 0 0 1 0 0 0 1 1 0 0 0

>  <DIFUSE_FUNC_ATOM>  (1057) 
n/a

>  <FINAL_SINGLE_POINT_ENERGY>  (1057) 
0

>  <NONCOV_INTER_ENERGY_QM>  (1057) 
0

>  <FF_Energy>  (1057) 
23.27

>  <QM_Energy>  (1057) 
6.02

>  <source>  (1057) 
ETAM_MSM

>  <Index>  (1057) 
6447

$$$$
ETAM-pdb3jz4-C-LYS-99:MSM-pdb3jz4-C-MET-93
     RDKit          3D

 20 18  0  0  0  0  0  0  0  0999 V2000
    1.2486    0.8693    0.0000 C   0  0  0  0  0  0  0  0  0  0  0  0
    1.2139    1.4776    0.7778 H   0  0  0  0  0  0  0  0  0  0  0  0
    1.2888    1.3689   -0.8504 H   0  0  0  0  0  0  0  0  0  0  0  0
    2.1381    0.2449    0.0833 H   0  0  0  0  0  0  0  0  0  0  0  0
    0.0000    0.0000    0.0000 C   0  0  0  0  0  0  0  0  0  0  0  0
    0.0258   -0.5968   -0.8162 H   0  0  0  0  0  0  0  0  0  0  0  0
    0.0253   -0.5974    0.8167 H   0  0  0  0  0  0  0  0  0  0  0  0
   -1.2486    0.7773   -0.0000 N   0  0  0  0  0  4  0  0  0  0  0  0
   -1.9362    0.3168    0.5662 H   0  0  0  0  0  0  0  0  0  0  0  0
   -1.0790    1.6936    0.3696 H   0  0  0  0  0  0  0  0  0  0  0  0
   -1.5977    0.8611   -0.9362 H   0  0  0  0  0  0  0  0  0  0  0  0
    1.1890   -0.4862    4.7288 C   0  0  0  0  0  0  0  0  0  0  0  0
    1.7931   -0.6217    3.9192 H   0  0  0  0  0  0  0  0  0  0  0  0
    0.6001   -1.3164    4.7920 H   0  0  0  0  0  0  0  0  0  0  0  0
    1.8017   -0.4091    5.6270 H   0  0  0  0  0  0  0  0  0  0  0  0
    0.1878    0.9846    4.5301 S   0  0  0  0  0  0  0  0  0  0  0  0
    0.4984    1.2325    2.8219 C   0  0  0  0  0  0  0  0  0  0  0  0
   -0.1164    0.6627    2.2638 H   0  0  0  0  0  0  0  0  0  0  0  0
    0.3516    2.1969    2.5714 H   0  0  0  0  0  0  0  0  0  0  0  0
    1.4492    0.9882    2.5948 H   0  0  0  0  0  0  0  0  0  0  0  0
  1  5  1  0
  5  8  1  0
  1  2  1  0
  1  3  1  0
  1  4  1  0
  5  6  1  0
  5  7  1  0
  8  9  1  0
  8 10  1  0
  8 11  1  0
 12 16  1  0
 16 17  1  0
 12 13  1  0
 12 14  1  0
 12 15  1  0
 17 18  1  0
 17 19  1  0
 17 20  1  0
M  CHG  1   8   1
M  END
>  <PDB_ID>  (1058) 
pdb3jz4

>  <RESIDUE_NAME>  (1058) 
LYS   MET

>  <FRAG_NAME>  (1058) 
ETAM   MSM

>  <FRAG_ATOM_NUM>  (1058) 
fragi: 11  fragj: 9

>  <atom.prop.CHAIN_ID>  (1058) 
A A A A A A A A A A A Z Z Z Z Z Z Z Z Z

>  <atom.prop.IS_HEAVY_ATOM>  (1058) 
1 0 0 0 1 0 0 1 0 0 0 1 0 0 0 1 1 0 0 0

>  <DIFUSE_FUNC_ATOM>  (1058) 
n/a

>  <FINAL_SINGLE_POINT_ENERGY>  (1058) 
0

>  <NONCOV_INTER_ENERGY_QM>  (1058) 
0

>  <FF_Energy>  (1058) 
18.01

>  <QM_Energy>  (1058) 
4.64

>  <source>  (1058) 
ETAM_MSM

>  <Index>  (1058) 
6448

$$$$
ETAM-pdb3jz4-D-LYS-99:MSM-pdb3jz4-D-MET-93
     RDKit          3D

 20 18  0  0  0  0  0  0  0  0999 V2000
    1.2564    0.8653   -0.0000 C   0  0  0  0  0  0  0  0  0  0  0  0
    1.2351    1.4599    0.7953 H   0  0  0  0  0  0  0  0  0  0  0  0
    1.2758    1.3996   -0.8361 H   0  0  0  0  0  0  0  0  0  0  0  0
    2.1617    0.2597    0.0456 H   0  0  0  0  0  0  0  0  0  0  0  0
    0.0000    0.0000    0.0000 C   0  0  0  0  0  0  0  0  0  0  0  0
    0.0125   -0.5891   -0.8167 H   0  0  0  0  0  0  0  0  0  0  0  0
    0.0118   -0.5885    0.8162 H   0  0  0  0  0  0  0  0  0  0  0  0
   -1.2564    0.8058    0.0000 N   0  0  0  0  0  4  0  0  0  0  0  0
   -2.0406    0.1921   -0.0792 H   0  0  0  0  0  0  0  0  0  0  0  0
   -1.3167    1.3214    0.8536 H   0  0  0  0  0  0  0  0  0  0  0  0
   -1.2432    1.4362   -0.7746 H   0  0  0  0  0  0  0  0  0  0  0  0
    1.1915   -0.4057    4.6528 C   0  0  0  0  0  0  0  0  0  0  0  0
    1.8028   -0.5345    3.8517 H   0  0  0  0  0  0  0  0  0  0  0  0
    0.6105   -1.2363    4.7186 H   0  0  0  0  0  0  0  0  0  0  0  0
    1.7967   -0.3170    5.5549 H   0  0  0  0  0  0  0  0  0  0  0  0
    0.1803    1.0612    4.4517 S   0  0  0  0  0  0  0  0  0  0  0  0
    0.5210    1.3352    2.7398 C   0  0  0  0  0  0  0  0  0  0  0  0
    0.8106    0.4782    2.3011 H   0  0  0  0  0  0  0  0  0  0  0  0
   -0.3009    1.6745    2.2711 H   0  0  0  0  0  0  0  0  0  0  0  0
    1.2547    2.0147    2.6350 H   0  0  0  0  0  0  0  0  0  0  0  0
  1  5  1  0
  5  8  1  0
  1  2  1  0
  1  3  1  0
  1  4  1  0
  5  6  1  0
  5  7  1  0
  8  9  1  0
  8 10  1  0
  8 11  1  0
 12 16  1  0
 16 17  1  0
 12 13  1  0
 12 14  1  0
 12 15  1  0
 17 18  1  0
 17 19  1  0
 17 20  1  0
M  CHG  1   8   1
M  END
>  <PDB_ID>  (1059) 
pdb3jz4

>  <RESIDUE_NAME>  (1059) 
LYS   MET

>  <FRAG_NAME>  (1059) 
ETAM   MSM

>  <FRAG_ATOM_NUM>  (1059) 
fragi: 11  fragj: 9

>  <atom.prop.CHAIN_ID>  (1059) 
A A A A A A A A A A A Z Z Z Z Z Z Z Z Z

>  <atom.prop.IS_HEAVY_ATOM>  (1059) 
1 0 0 0 1 0 0 1 0 0 0 1 0 0 0 1 1 0 0 0

>  <DIFUSE_FUNC_ATOM>  (1059) 
n/a

>  <FINAL_SINGLE_POINT_ENERGY>  (1059) 
0

>  <NONCOV_INTER_ENERGY_QM>  (1059) 
0

>  <FF_Energy>  (1059) 
26.68

>  <QM_Energy>  (1059) 
6.68

>  <source>  (1059) 
ETAM_MSM

>  <Index>  (1059) 
6449

$$$$
ETAM-pdb3jxi-B-LYS-246:MSM-pdb3jxi-B-MET-209
     RDKit          3D

 20 18  0  0  0  0  0  0  0  0999 V2000
    1.2820    0.8839   -0.0000 C   0  0  0  0  0  0  0  0  0  0  0  0
    2.0250    0.3246   -0.3400 H   0  0  0  0  0  0  0  0  0  0  0  0
    1.4447    1.1650    0.9352 H   0  0  0  0  0  0  0  0  0  0  0  0
    1.1436    1.7559   -0.6392 H   0  0  0  0  0  0  0  0  0  0  0  0
    0.0000    0.0000    0.0000 C   0  0  0  0  0  0  0  0  0  0  0  0
    0.0220   -0.5849   -0.8163 H   0  0  0  0  0  0  0  0  0  0  0  0
    0.0218   -0.5848    0.8165 H   0  0  0  0  0  0  0  0  0  0  0  0
   -1.2820    0.7995    0.0000 N   0  0  0  0  0  4  0  0  0  0  0  0
   -1.9284    0.3676   -0.6218 H   0  0  0  0  0  0  0  0  0  0  0  0
   -1.6517    0.8125    0.9254 H   0  0  0  0  0  0  0  0  0  0  0  0
   -1.0813    1.7272   -0.3027 H   0  0  0  0  0  0  0  0  0  0  0  0
    2.0667    5.7589    2.7138 C   0  0  0  0  0  0  0  0  0  0  0  0
    2.9783    5.7156    2.2282 H   0  0  0  0  0  0  0  0  0  0  0  0
    2.2417    5.3052    3.6263 H   0  0  0  0  0  0  0  0  0  0  0  0
    1.8681    6.8113    2.9168 H   0  0  0  0  0  0  0  0  0  0  0  0
    0.7884    4.9232    1.7953 S   0  0  0  0  0  0  0  0  0  0  0  0
    1.4365    3.3251    2.1779 C   0  0  0  0  0  0  0  0  0  0  0  0
    1.0828    3.0087    3.0639 H   0  0  0  0  0  0  0  0  0  0  0  0
    1.1700    2.6623    1.4698 H   0  0  0  0  0  0  0  0  0  0  0  0
    2.4400    3.3583    2.2257 H   0  0  0  0  0  0  0  0  0  0  0  0
  1  5  1  0
  5  8  1  0
  1  2  1  0
  1  3  1  0
  1  4  1  0
  5  6  1  0
  5  7  1  0
  8  9  1  0
  8 10  1  0
  8 11  1  0
 12 16  1  0
 16 17  1  0
 12 13  1  0
 12 14  1  0
 12 15  1  0
 17 18  1  0
 17 19  1  0
 17 20  1  0
M  CHG  1   8   1
M  END
>  <PDB_ID>  (1060) 
pdb3jxi

>  <RESIDUE_NAME>  (1060) 
LYS   MET

>  <FRAG_NAME>  (1060) 
ETAM   MSM

>  <FRAG_ATOM_NUM>  (1060) 
fragi: 11  fragj: 9

>  <atom.prop.CHAIN_ID>  (1060) 
A A A A A A A A A A A Z Z Z Z Z Z Z Z Z

>  <atom.prop.IS_HEAVY_ATOM>  (1060) 
1 0 0 0 1 0 0 1 0 0 0 1 0 0 0 1 1 0 0 0

>  <DIFUSE_FUNC_ATOM>  (1060) 
n/a

>  <FINAL_SINGLE_POINT_ENERGY>  (1060) 
0

>  <NONCOV_INTER_ENERGY_QM>  (1060) 
0

>  <FF_Energy>  (1060) 
12.96

>  <QM_Energy>  (1060) 
2.68

>  <source>  (1060) 
ETAM_MSM

>  <Index>  (1060) 
6450

$$$$
ETAM-pdb4gin-A-LYS-192:MSM-pdb4gin-A-MET-79
     RDKit          3D

 20 18  0  0  0  0  0  0  0  0999 V2000
    1.2690    0.8572   -0.0000 C   0  0  0  0  0  0  0  0  0  0  0  0
    2.0525    0.2659    0.1812 H   0  0  0  0  0  0  0  0  0  0  0  0
    1.1897    1.5426    0.7218 H   0  0  0  0  0  0  0  0  0  0  0  0
    1.4405    1.3721   -0.9453 H   0  0  0  0  0  0  0  0  0  0  0  0
    0.0000    0.0000    0.0000 C   0  0  0  0  0  0  0  0  0  0  0  0
    0.0122   -0.5945   -0.8161 H   0  0  0  0  0  0  0  0  0  0  0  0
    0.0122   -0.5948    0.8166 H   0  0  0  0  0  0  0  0  0  0  0  0
   -1.2690    0.7973    0.0000 N   0  0  0  0  0  4  0  0  0  0  0  0
   -1.6010    0.8821    0.9374 H   0  0  0  0  0  0  0  0  0  0  0  0
   -1.0858    1.7028   -0.3779 H   0  0  0  0  0  0  0  0  0  0  0  0
   -1.9495    0.3283   -0.5592 H   0  0  0  0  0  0  0  0  0  0  0  0
   -2.8976   -0.3772    3.2638 C   0  0  0  0  0  0  0  0  0  0  0  0
   -3.3322   -0.9121    2.5009 H   0  0  0  0  0  0  0  0  0  0  0  0
   -3.1010    0.6079    3.0520 H   0  0  0  0  0  0  0  0  0  0  0  0
   -3.4103   -0.6360    4.1902 H   0  0  0  0  0  0  0  0  0  0  0  0
   -1.1225   -0.6694    3.3258 S   0  0  0  0  0  0  0  0  0  0  0  0
   -1.0970   -2.4694    3.3146 C   0  0  0  0  0  0  0  0  0  0  0  0
   -1.6995   -2.8044    2.5911 H   0  0  0  0  0  0  0  0  0  0  0  0
   -0.1637   -2.7868    3.1477 H   0  0  0  0  0  0  0  0  0  0  0  0
   -1.4139   -2.8105    4.1992 H   0  0  0  0  0  0  0  0  0  0  0  0
  1  5  1  0
  5  8  1  0
  1  2  1  0
  1  3  1  0
  1  4  1  0
  5  6  1  0
  5  7  1  0
  8  9  1  0
  8 10  1  0
  8 11  1  0
 12 16  1  0
 16 17  1  0
 12 13  1  0
 12 14  1  0
 12 15  1  0
 17 18  1  0
 17 19  1  0
 17 20  1  0
M  CHG  1   8   1
M  END
>  <PDB_ID>  (1061) 
pdb4gin

>  <RESIDUE_NAME>  (1061) 
LYS   MET

>  <FRAG_NAME>  (1061) 
ETAM   MSM

>  <FRAG_ATOM_NUM>  (1061) 
fragi: 11  fragj: 9

>  <atom.prop.CHAIN_ID>  (1061) 
A A A A A A A A A A A Z Z Z Z Z Z Z Z Z

>  <atom.prop.IS_HEAVY_ATOM>  (1061) 
1 0 0 0 1 0 0 1 0 0 0 1 0 0 0 1 1 0 0 0

>  <DIFUSE_FUNC_ATOM>  (1061) 
n/a

>  <FINAL_SINGLE_POINT_ENERGY>  (1061) 
0

>  <NONCOV_INTER_ENERGY_QM>  (1061) 
0

>  <FF_Energy>  (1061) 
-3.93

>  <QM_Energy>  (1061) 
-10.77

>  <source>  (1061) 
ETAM_MSM

>  <Index>  (1061) 
6452

$$$$
ETAM-pdb4glf-A-LYS-254:MSM-pdb4glf-A-MET-27
     RDKit          3D

 20 18  0  0  0  0  0  0  0  0999 V2000
    1.2572    0.8612   -0.0000 C   0  0  0  0  0  0  0  0  0  0  0  0
    1.4942    1.0839    0.9277 H   0  0  0  0  0  0  0  0  0  0  0  0
    1.0977    1.6619   -0.5473 H   0  0  0  0  0  0  0  0  0  0  0  0
    2.0808    0.2994   -0.4407 H   0  0  0  0  0  0  0  0  0  0  0  0
    0.0000    0.0000    0.0000 C   0  0  0  0  0  0  0  0  0  0  0  0
    0.0122   -0.5910   -0.8159 H   0  0  0  0  0  0  0  0  0  0  0  0
    0.0119   -0.5911    0.8168 H   0  0  0  0  0  0  0  0  0  0  0  0
   -1.2572    0.8031   -0.0000 N   0  0  0  0  0  4  0  0  0  0  0  0
   -1.3605    1.2543   -0.8854 H   0  0  0  0  0  0  0  0  0  0  0  0
   -2.0351    0.1972    0.1612 H   0  0  0  0  0  0  0  0  0  0  0  0
   -1.2101    1.4897    0.7243 H   0  0  0  0  0  0  0  0  0  0  0  0
   -1.1053    0.9480   -4.8514 C   0  0  0  0  0  0  0  0  0  0  0  0
   -1.3130    0.3765   -5.6561 H   0  0  0  0  0  0  0  0  0  0  0  0
   -0.7203    1.8207   -5.1789 H   0  0  0  0  0  0  0  0  0  0  0  0
   -2.0333    1.1518   -4.3172 H   0  0  0  0  0  0  0  0  0  0  0  0
    0.0459    0.1097   -3.7454 S   0  0  0  0  0  0  0  0  0  0  0  0
    1.2949   -0.4628   -4.8846 C   0  0  0  0  0  0  0  0  0  0  0  0
    2.1546   -0.6202   -4.3941 H   0  0  0  0  0  0  0  0  0  0  0  0
    0.9980   -1.3192   -5.3115 H   0  0  0  0  0  0  0  0  0  0  0  0
    1.4444    0.2255   -5.5975 H   0  0  0  0  0  0  0  0  0  0  0  0
  1  5  1  0
  5  8  1  0
  1  2  1  0
  1  3  1  0
  1  4  1  0
  5  6  1  0
  5  7  1  0
  8  9  1  0
  8 10  1  0
  8 11  1  0
 12 16  1  0
 16 17  1  0
 12 13  1  0
 12 14  1  0
 12 15  1  0
 17 18  1  0
 17 19  1  0
 17 20  1  0
M  CHG  1   8   1
M  END
>  <PDB_ID>  (1062) 
pdb4glf

>  <RESIDUE_NAME>  (1062) 
LYS   MET

>  <FRAG_NAME>  (1062) 
ETAM   MSM

>  <FRAG_ATOM_NUM>  (1062) 
fragi: 11  fragj: 9

>  <atom.prop.CHAIN_ID>  (1062) 
A A A A A A A A A A A Z Z Z Z Z Z Z Z Z

>  <atom.prop.IS_HEAVY_ATOM>  (1062) 
1 0 0 0 1 0 0 1 0 0 0 1 0 0 0 1 1 0 0 0

>  <DIFUSE_FUNC_ATOM>  (1062) 
n/a

>  <FINAL_SINGLE_POINT_ENERGY>  (1062) 
0

>  <NONCOV_INTER_ENERGY_QM>  (1062) 
0

>  <FF_Energy>  (1062) 
-4.7

>  <QM_Energy>  (1062) 
-10.13

>  <source>  (1062) 
ETAM_MSM

>  <Index>  (1062) 
6469

$$$$
ETAM-pdb3k3p-B-LYS-343:MSM-pdb3k3p-B-MET-340
     RDKit          3D

 20 18  0  0  0  0  0  0  0  0999 V2000
    1.2914    0.8351   -0.0000 C   0  0  0  0  0  0  0  0  0  0  0  0
    1.2068    1.5494   -0.6858 H   0  0  0  0  0  0  0  0  0  0  0  0
    2.0551    0.2366   -0.2133 H   0  0  0  0  0  0  0  0  0  0  0  0
    1.4828    1.3063    0.9641 H   0  0  0  0  0  0  0  0  0  0  0  0
    0.0000    0.0000    0.0000 C   0  0  0  0  0  0  0  0  0  0  0  0
    0.0029   -0.6020   -0.8160 H   0  0  0  0  0  0  0  0  0  0  0  0
    0.0026   -0.6019    0.8165 H   0  0  0  0  0  0  0  0  0  0  0  0
   -1.2914    0.7977    0.0000 N   0  0  0  0  0  4  0  0  0  0  0  0
   -1.8782    0.4507   -0.7247 H   0  0  0  0  0  0  0  0  0  0  0  0
   -1.7322    0.6874    0.8854 H   0  0  0  0  0  0  0  0  0  0  0  0
   -1.0723    1.7543   -0.1608 H   0  0  0  0  0  0  0  0  0  0  0  0
    4.5343   -3.7934    0.1340 C   0  0  0  0  0  0  0  0  0  0  0  0
    5.2086   -3.2463   -0.3961 H   0  0  0  0  0  0  0  0  0  0  0  0
    4.7418   -4.7727   -0.0491 H   0  0  0  0  0  0  0  0  0  0  0  0
    4.6563   -3.5881    1.1976 H   0  0  0  0  0  0  0  0  0  0  0  0
    2.8312   -3.4016   -0.4361 S   0  0  0  0  0  0  0  0  0  0  0  0
    3.2708   -1.8438   -1.2214 C   0  0  0  0  0  0  0  0  0  0  0  0
    4.2591   -1.7060   -1.1558 H   0  0  0  0  0  0  0  0  0  0  0  0
    2.9997   -1.8689   -2.1836 H   0  0  0  0  0  0  0  0  0  0  0  0
    2.7969   -1.0941   -0.7602 H   0  0  0  0  0  0  0  0  0  0  0  0
  1  5  1  0
  5  8  1  0
  1  2  1  0
  1  3  1  0
  1  4  1  0
  5  6  1  0
  5  7  1  0
  8  9  1  0
  8 10  1  0
  8 11  1  0
 12 16  1  0
 16 17  1  0
 12 13  1  0
 12 14  1  0
 12 15  1  0
 17 18  1  0
 17 19  1  0
 17 20  1  0
M  CHG  1   8   1
M  END
>  <PDB_ID>  (1063) 
pdb3k3p

>  <RESIDUE_NAME>  (1063) 
LYS   MET

>  <FRAG_NAME>  (1063) 
ETAM   MSM

>  <FRAG_ATOM_NUM>  (1063) 
fragi: 11  fragj: 9

>  <atom.prop.CHAIN_ID>  (1063) 
A A A A A A A A A A A Z Z Z Z Z Z Z Z Z

>  <atom.prop.IS_HEAVY_ATOM>  (1063) 
1 0 0 0 1 0 0 1 0 0 0 1 0 0 0 1 1 0 0 0

>  <DIFUSE_FUNC_ATOM>  (1063) 
n/a

>  <FINAL_SINGLE_POINT_ENERGY>  (1063) 
0

>  <NONCOV_INTER_ENERGY_QM>  (1063) 
0

>  <FF_Energy>  (1063) 
8.87

>  <QM_Energy>  (1063) 
0.13

>  <source>  (1063) 
ETAM_MSM

>  <Index>  (1063) 
6486

$$$$
ETAM-pdb3k5h-A-LYS-55:MSM-pdb3k5h-A-MET-150
     RDKit          3D

 20 18  0  0  0  0  0  0  0  0999 V2000
    1.1452    0.9262    0.0000 C   0  0  0  0  0  0  0  0  0  0  0  0
    1.6477    0.8107    0.8699 H   0  0  0  0  0  0  0  0  0  0  0  0
    0.7883    1.8715   -0.0261 H   0  0  0  0  0  0  0  0  0  0  0  0
    1.8111    0.7502   -0.8449 H   0  0  0  0  0  0  0  0  0  0  0  0
    0.0000    0.0000    0.0000 C   0  0  0  0  0  0  0  0  0  0  0  0
    0.0196   -0.5526   -0.8164 H   0  0  0  0  0  0  0  0  0  0  0  0
    0.0200   -0.5521    0.8169 H   0  0  0  0  0  0  0  0  0  0  0  0
   -1.1452    0.8546    0.0000 N   0  0  0  0  0  4  0  0  0  0  0  0
   -0.9676    1.6964    0.5294 H   0  0  0  0  0  0  0  0  0  0  0  0
   -1.3936    1.1252   -0.9406 H   0  0  0  0  0  0  0  0  0  0  0  0
   -1.9420    0.3902    0.4111 H   0  0  0  0  0  0  0  0  0  0  0  0
   -3.3687    1.0097    3.7497 C   0  0  0  0  0  0  0  0  0  0  0  0
   -3.5797    0.1242    3.3170 H   0  0  0  0  0  0  0  0  0  0  0  0
   -3.5447    1.7386    3.0762 H   0  0  0  0  0  0  0  0  0  0  0  0
   -4.0217    1.1515    4.6108 H   0  0  0  0  0  0  0  0  0  0  0  0
   -1.6236    1.0524    4.2892 S   0  0  0  0  0  0  0  0  0  0  0  0
   -0.7049    1.1683    2.7833 C   0  0  0  0  0  0  0  0  0  0  0  0
    0.0182    0.4711    2.7629 H   0  0  0  0  0  0  0  0  0  0  0  0
   -1.3114    1.0269    1.9947 H   0  0  0  0  0  0  0  0  0  0  0  0
   -0.2804    2.0756    2.7046 H   0  0  0  0  0  0  0  0  0  0  0  0
  1  5  1  0
  5  8  1  0
  1  2  1  0
  1  3  1  0
  1  4  1  0
  5  6  1  0
  5  7  1  0
  8  9  1  0
  8 10  1  0
  8 11  1  0
 12 16  1  0
 16 17  1  0
 12 13  1  0
 12 14  1  0
 12 15  1  0
 17 18  1  0
 17 19  1  0
 17 20  1  0
M  CHG  1   8   1
M  END
>  <PDB_ID>  (1064) 
pdb3k5h

>  <RESIDUE_NAME>  (1064) 
LYS   MET

>  <FRAG_NAME>  (1064) 
ETAM   MSM

>  <FRAG_ATOM_NUM>  (1064) 
fragi: 11  fragj: 9

>  <atom.prop.CHAIN_ID>  (1064) 
A A A A A A A A A A A Z Z Z Z Z Z Z Z Z

>  <atom.prop.IS_HEAVY_ATOM>  (1064) 
1 0 0 0 1 0 0 1 0 0 0 1 0 0 0 1 1 0 0 0

>  <DIFUSE_FUNC_ATOM>  (1064) 
n/a

>  <FINAL_SINGLE_POINT_ENERGY>  (1064) 
0

>  <NONCOV_INTER_ENERGY_QM>  (1064) 
0

>  <FF_Energy>  (1064) 
23.92

>  <QM_Energy>  (1064) 
8.08

>  <source>  (1064) 
ETAM_MSM

>  <Index>  (1064) 
6490

$$$$
ETAM-pdb3k5h-B-LYS-55:MSM-pdb3k5h-B-MET-150
     RDKit          3D

 20 18  0  0  0  0  0  0  0  0999 V2000
    1.2043    0.9046    0.0000 C   0  0  0  0  0  0  0  0  0  0  0  0
    1.0743    1.6175    0.6910 H   0  0  0  0  0  0  0  0  0  0  0  0
    1.2909    1.3288   -0.9023 H   0  0  0  0  0  0  0  0  0  0  0  0
    2.1288    0.3721    0.2231 H   0  0  0  0  0  0  0  0  0  0  0  0
    0.0000    0.0000    0.0000 C   0  0  0  0  0  0  0  0  0  0  0  0
    0.0020   -0.5529   -0.8162 H   0  0  0  0  0  0  0  0  0  0  0  0
    0.0013   -0.5535    0.8162 H   0  0  0  0  0  0  0  0  0  0  0  0
   -1.2043    0.8744   -0.0000 N   0  0  0  0  0  4  0  0  0  0  0  0
   -2.0217    0.3132    0.1261 H   0  0  0  0  0  0  0  0  0  0  0  0
   -1.1341    1.5362    0.7466 H   0  0  0  0  0  0  0  0  0  0  0  0
   -1.2625    1.3591   -0.8719 H   0  0  0  0  0  0  0  0  0  0  0  0
   -5.3556   -1.4843   -0.5969 C   0  0  0  0  0  0  0  0  0  0  0  0
   -5.6944   -2.3169   -1.1779 H   0  0  0  0  0  0  0  0  0  0  0  0
   -5.6732   -0.6852   -1.2329 H   0  0  0  0  0  0  0  0  0  0  0  0
   -6.0080   -1.4469    0.2755 H   0  0  0  0  0  0  0  0  0  0  0  0
   -3.5325   -1.5034   -0.4674 S   0  0  0  0  0  0  0  0  0  0  0  0
   -3.1517   -1.3111    1.2876 C   0  0  0  0  0  0  0  0  0  0  0  0
   -2.8070   -0.3879    1.4495 H   0  0  0  0  0  0  0  0  0  0  0  0
   -3.9816   -1.4601    1.8220 H   0  0  0  0  0  0  0  0  0  0  0  0
   -2.4578   -1.9804    1.5486 H   0  0  0  0  0  0  0  0  0  0  0  0
  1  5  1  0
  5  8  1  0
  1  2  1  0
  1  3  1  0
  1  4  1  0
  5  6  1  0
  5  7  1  0
  8  9  1  0
  8 10  1  0
  8 11  1  0
 12 16  1  0
 16 17  1  0
 12 13  1  0
 12 14  1  0
 12 15  1  0
 17 18  1  0
 17 19  1  0
 17 20  1  0
M  CHG  1   8   1
M  END
>  <PDB_ID>  (1065) 
pdb3k5h

>  <RESIDUE_NAME>  (1065) 
LYS   MET

>  <FRAG_NAME>  (1065) 
ETAM   MSM

>  <FRAG_ATOM_NUM>  (1065) 
fragi: 11  fragj: 9

>  <atom.prop.CHAIN_ID>  (1065) 
A A A A A A A A A A A Z Z Z Z Z Z Z Z Z

>  <atom.prop.IS_HEAVY_ATOM>  (1065) 
1 0 0 0 1 0 0 1 0 0 0 1 0 0 0 1 1 0 0 0

>  <DIFUSE_FUNC_ATOM>  (1065) 
n/a

>  <FINAL_SINGLE_POINT_ENERGY>  (1065) 
0

>  <NONCOV_INTER_ENERGY_QM>  (1065) 
0

>  <FF_Energy>  (1065) 
-2.88

>  <QM_Energy>  (1065) 
-9.29

>  <source>  (1065) 
ETAM_MSM

>  <Index>  (1065) 
6500

$$$$
ETAM-pdb4gxb-A-LYS-387:MSM-pdb4gxb-A-MET-384
     RDKit          3D

 20 18  0  0  0  0  0  0  0  0999 V2000
    1.2552    0.8658   -0.0000 C   0  0  0  0  0  0  0  0  0  0  0  0
    1.1579    1.5642    0.6988 H   0  0  0  0  0  0  0  0  0  0  0  0
    1.3544    1.2775   -0.8974 H   0  0  0  0  0  0  0  0  0  0  0  0
    2.1421    0.2706    0.2171 H   0  0  0  0  0  0  0  0  0  0  0  0
    0.0000    0.0000    0.0000 C   0  0  0  0  0  0  0  0  0  0  0  0
    0.0122   -0.5876   -0.8161 H   0  0  0  0  0  0  0  0  0  0  0  0
    0.0116   -0.5880    0.8166 H   0  0  0  0  0  0  0  0  0  0  0  0
   -1.2552    0.8080   -0.0000 N   0  0  0  0  0  4  0  0  0  0  0  0
   -1.1414    1.5930    0.6077 H   0  0  0  0  0  0  0  0  0  0  0  0
   -1.4420    1.1255   -0.9283 H   0  0  0  0  0  0  0  0  0  0  0  0
   -2.0121    0.2402    0.3205 H   0  0  0  0  0  0  0  0  0  0  0  0
   -0.1732   -0.0392   -5.3996 C   0  0  0  0  0  0  0  0  0  0  0  0
    0.3091    0.4570   -6.1637 H   0  0  0  0  0  0  0  0  0  0  0  0
   -1.1536   -0.1091   -5.7104 H   0  0  0  0  0  0  0  0  0  0  0  0
    0.2349   -1.0485   -5.3458 H   0  0  0  0  0  0  0  0  0  0  0  0
   -0.0592    0.9058   -3.8505 S   0  0  0  0  0  0  0  0  0  0  0  0
    1.5448    1.6858   -3.9986 C   0  0  0  0  0  0  0  0  0  0  0  0
    1.9583    1.7806   -3.0909 H   0  0  0  0  0  0  0  0  0  0  0  0
    2.1398    1.1246   -4.5763 H   0  0  0  0  0  0  0  0  0  0  0  0
    1.4411    2.5918   -4.4116 H   0  0  0  0  0  0  0  0  0  0  0  0
  1  5  1  0
  5  8  1  0
  1  2  1  0
  1  3  1  0
  1  4  1  0
  5  6  1  0
  5  7  1  0
  8  9  1  0
  8 10  1  0
  8 11  1  0
 12 16  1  0
 16 17  1  0
 12 13  1  0
 12 14  1  0
 12 15  1  0
 17 18  1  0
 17 19  1  0
 17 20  1  0
M  CHG  1   8   1
M  END
>  <PDB_ID>  (1066) 
pdb4gxb

>  <RESIDUE_NAME>  (1066) 
LYS   MET

>  <FRAG_NAME>  (1066) 
ETAM   MSM

>  <FRAG_ATOM_NUM>  (1066) 
fragi: 11  fragj: 9

>  <atom.prop.CHAIN_ID>  (1066) 
A A A A A A A A A A A Z Z Z Z Z Z Z Z Z

>  <atom.prop.IS_HEAVY_ATOM>  (1066) 
1 0 0 0 1 0 0 1 0 0 0 1 0 0 0 1 1 0 0 0

>  <DIFUSE_FUNC_ATOM>  (1066) 
n/a

>  <FINAL_SINGLE_POINT_ENERGY>  (1066) 
0

>  <NONCOV_INTER_ENERGY_QM>  (1066) 
0

>  <FF_Energy>  (1066) 
-5.04

>  <QM_Energy>  (1066) 
-10.76

>  <source>  (1066) 
ETAM_MSM

>  <Index>  (1066) 
6501

$$$$
ETAM-pdb4gqb-A-LYS-610:MSM-pdb4gqb-A-MET-316
     RDKit          3D

 20 18  0  0  0  0  0  0  0  0999 V2000
    1.2343    0.8752   -0.0000 C   0  0  0  0  0  0  0  0  0  0  0  0
    1.0721    1.6562    0.6226 H   0  0  0  0  0  0  0  0  0  0  0  0
    1.3622    1.2468   -0.9317 H   0  0  0  0  0  0  0  0  0  0  0  0
    2.1561    0.3786    0.3031 H   0  0  0  0  0  0  0  0  0  0  0  0
    0.0000    0.0000    0.0000 C   0  0  0  0  0  0  0  0  0  0  0  0
    0.0052   -0.5754   -0.8164 H   0  0  0  0  0  0  0  0  0  0  0  0
    0.0047   -0.5757    0.8166 H   0  0  0  0  0  0  0  0  0  0  0  0
   -1.2343    0.8356    0.0000 N   0  0  0  0  0  4  0  0  0  0  0  0
   -1.6194    0.8557   -0.9213 H   0  0  0  0  0  0  0  0  0  0  0  0
   -1.8998    0.4427    0.6337 H   0  0  0  0  0  0  0  0  0  0  0  0
   -1.0042    1.7641    0.2884 H   0  0  0  0  0  0  0  0  0  0  0  0
   -3.6344    3.1181   -3.9231 C   0  0  0  0  0  0  0  0  0  0  0  0
   -4.6035    3.0167   -4.2159 H   0  0  0  0  0  0  0  0  0  0  0  0
   -3.1097    2.3771   -4.3813 H   0  0  0  0  0  0  0  0  0  0  0  0
   -3.2593    4.0833   -4.2633 H   0  0  0  0  0  0  0  0  0  0  0  0
   -3.4985    2.9669   -2.1190 S   0  0  0  0  0  0  0  0  0  0  0  0
   -4.7600    4.2513   -1.5766 C   0  0  0  0  0  0  0  0  0  0  0  0
   -4.4375    4.6359   -0.7270 H   0  0  0  0  0  0  0  0  0  0  0  0
   -4.8080    4.9322   -2.2898 H   0  0  0  0  0  0  0  0  0  0  0  0
   -5.6214    3.7836   -1.4606 H   0  0  0  0  0  0  0  0  0  0  0  0
  1  5  1  0
  5  8  1  0
  1  2  1  0
  1  3  1  0
  1  4  1  0
  5  6  1  0
  5  7  1  0
  8  9  1  0
  8 10  1  0
  8 11  1  0
 12 16  1  0
 16 17  1  0
 12 13  1  0
 12 14  1  0
 12 15  1  0
 17 18  1  0
 17 19  1  0
 17 20  1  0
M  CHG  1   8   1
M  END
>  <PDB_ID>  (1067) 
pdb4gqb

>  <RESIDUE_NAME>  (1067) 
LYS   MET

>  <FRAG_NAME>  (1067) 
ETAM   MSM

>  <FRAG_ATOM_NUM>  (1067) 
fragi: 11  fragj: 9

>  <atom.prop.CHAIN_ID>  (1067) 
A A A A A A A A A A A Z Z Z Z Z Z Z Z Z

>  <atom.prop.IS_HEAVY_ATOM>  (1067) 
1 0 0 0 1 0 0 1 0 0 0 1 0 0 0 1 1 0 0 0

>  <DIFUSE_FUNC_ATOM>  (1067) 
n/a

>  <FINAL_SINGLE_POINT_ENERGY>  (1067) 
0

>  <NONCOV_INTER_ENERGY_QM>  (1067) 
0

>  <FF_Energy>  (1067) 
-4.71

>  <QM_Energy>  (1067) 
-11.01

>  <source>  (1067) 
ETAM_MSM

>  <Index>  (1067) 
6502

$$$$
ETAM-pdb3k8z-C-LYS-115:MSM-pdb3k8z-C-MET-100
     RDKit          3D

 20 18  0  0  0  0  0  0  0  0999 V2000
    1.2546    0.8606    0.0000 C   0  0  0  0  0  0  0  0  0  0  0  0
    1.2290    1.4574    0.7934 H   0  0  0  0  0  0  0  0  0  0  0  0
    1.2728    1.3933   -0.8380 H   0  0  0  0  0  0  0  0  0  0  0  0
    2.1532    0.2456    0.0491 H   0  0  0  0  0  0  0  0  0  0  0  0
    0.0000    0.0000    0.0000 C   0  0  0  0  0  0  0  0  0  0  0  0
    0.0093   -0.5894   -0.8165 H   0  0  0  0  0  0  0  0  0  0  0  0
    0.0091   -0.5901    0.8162 H   0  0  0  0  0  0  0  0  0  0  0  0
   -1.2546    0.8091    0.0000 N   0  0  0  0  0  4  0  0  0  0  0  0
   -1.9177    0.3891    0.6177 H   0  0  0  0  0  0  0  0  0  0  0  0
   -1.0486    1.7366    0.3077 H   0  0  0  0  0  0  0  0  0  0  0  0
   -1.6282    0.8376   -0.9256 H   0  0  0  0  0  0  0  0  0  0  0  0
   -0.0054    3.7376   -2.2012 C   0  0  0  0  0  0  0  0  0  0  0  0
    0.0713    2.8474   -2.6960 H   0  0  0  0  0  0  0  0  0  0  0  0
    0.6975    3.7112   -1.4605 H   0  0  0  0  0  0  0  0  0  0  0  0
    0.2486    4.5411   -2.8926 H   0  0  0  0  0  0  0  0  0  0  0  0
   -1.6555    3.9462   -1.5100 S   0  0  0  0  0  0  0  0  0  0  0  0
   -1.5363    5.6220   -0.9106 C   0  0  0  0  0  0  0  0  0  0  0  0
   -1.1484    5.6256    0.0140 H   0  0  0  0  0  0  0  0  0  0  0  0
   -0.9459    6.1583   -1.5171 H   0  0  0  0  0  0  0  0  0  0  0  0
   -2.4475    6.0393   -0.8862 H   0  0  0  0  0  0  0  0  0  0  0  0
  1  5  1  0
  5  8  1  0
  1  2  1  0
  1  3  1  0
  1  4  1  0
  5  6  1  0
  5  7  1  0
  8  9  1  0
  8 10  1  0
  8 11  1  0
 12 16  1  0
 16 17  1  0
 12 13  1  0
 12 14  1  0
 12 15  1  0
 17 18  1  0
 17 19  1  0
 17 20  1  0
M  CHG  1   8   1
M  END
>  <PDB_ID>  (1068) 
pdb3k8z

>  <RESIDUE_NAME>  (1068) 
LYS   MET

>  <FRAG_NAME>  (1068) 
ETAM   MSM

>  <FRAG_ATOM_NUM>  (1068) 
fragi: 11  fragj: 9

>  <atom.prop.CHAIN_ID>  (1068) 
A A A A A A A A A A A Z Z Z Z Z Z Z Z Z

>  <atom.prop.IS_HEAVY_ATOM>  (1068) 
1 0 0 0 1 0 0 1 0 0 0 1 0 0 0 1 1 0 0 0

>  <DIFUSE_FUNC_ATOM>  (1068) 
n/a

>  <FINAL_SINGLE_POINT_ENERGY>  (1068) 
0

>  <NONCOV_INTER_ENERGY_QM>  (1068) 
0

>  <FF_Energy>  (1068) 
-4.95

>  <QM_Energy>  (1068) 
-11.46

>  <source>  (1068) 
ETAM_MSM

>  <Index>  (1068) 
6511

$$$$
ETAM-pdb3k8z-F-LYS-115:MSM-pdb3k8z-F-MET-100
     RDKit          3D

 20 18  0  0  0  0  0  0  0  0999 V2000
    1.2589    0.8518   -0.0000 C   0  0  0  0  0  0  0  0  0  0  0  0
    1.2493    1.4348    0.8034 H   0  0  0  0  0  0  0  0  0  0  0  0
    1.2745    1.3958   -0.8295 H   0  0  0  0  0  0  0  0  0  0  0  0
    2.1515    0.2269    0.0292 H   0  0  0  0  0  0  0  0  0  0  0  0
    0.0000    0.0000    0.0000 C   0  0  0  0  0  0  0  0  0  0  0  0
    0.0080   -0.5947   -0.8163 H   0  0  0  0  0  0  0  0  0  0  0  0
    0.0083   -0.5940    0.8164 H   0  0  0  0  0  0  0  0  0  0  0  0
   -1.2589    0.8034   -0.0000 N   0  0  0  0  0  4  0  0  0  0  0  0
   -1.7431    0.6566   -0.8609 H   0  0  0  0  0  0  0  0  0  0  0  0
   -1.8343    0.5138    0.7633 H   0  0  0  0  0  0  0  0  0  0  0  0
   -1.0315    1.7708    0.0977 H   0  0  0  0  0  0  0  0  0  0  0  0
    0.0104    3.7449   -2.1850 C   0  0  0  0  0  0  0  0  0  0  0  0
    0.0713    2.8624   -2.6959 H   0  0  0  0  0  0  0  0  0  0  0  0
    0.7220    3.6979   -1.4527 H   0  0  0  0  0  0  0  0  0  0  0  0
    0.2677    4.5563   -2.8658 H   0  0  0  0  0  0  0  0  0  0  0  0
   -1.6314    3.9601   -1.4711 S   0  0  0  0  0  0  0  0  0  0  0  0
   -1.4996    5.6343   -0.8638 C   0  0  0  0  0  0  0  0  0  0  0  0
   -1.8715    6.2708   -1.5428 H   0  0  0  0  0  0  0  0  0  0  0  0
   -2.0148    5.7261   -0.0095 H   0  0  0  0  0  0  0  0  0  0  0  0
   -0.5372    5.8582   -0.6941 H   0  0  0  0  0  0  0  0  0  0  0  0
  1  5  1  0
  5  8  1  0
  1  2  1  0
  1  3  1  0
  1  4  1  0
  5  6  1  0
  5  7  1  0
  8  9  1  0
  8 10  1  0
  8 11  1  0
 12 16  1  0
 16 17  1  0
 12 13  1  0
 12 14  1  0
 12 15  1  0
 17 18  1  0
 17 19  1  0
 17 20  1  0
M  CHG  1   8   1
M  END
>  <PDB_ID>  (1069) 
pdb3k8z

>  <RESIDUE_NAME>  (1069) 
LYS   MET

>  <FRAG_NAME>  (1069) 
ETAM   MSM

>  <FRAG_ATOM_NUM>  (1069) 
fragi: 11  fragj: 9

>  <atom.prop.CHAIN_ID>  (1069) 
A A A A A A A A A A A Z Z Z Z Z Z Z Z Z

>  <atom.prop.IS_HEAVY_ATOM>  (1069) 
1 0 0 0 1 0 0 1 0 0 0 1 0 0 0 1 1 0 0 0

>  <DIFUSE_FUNC_ATOM>  (1069) 
n/a

>  <FINAL_SINGLE_POINT_ENERGY>  (1069) 
0

>  <NONCOV_INTER_ENERGY_QM>  (1069) 
0

>  <FF_Energy>  (1069) 
-5.05

>  <QM_Energy>  (1069) 
-12.44

>  <source>  (1069) 
ETAM_MSM

>  <Index>  (1069) 
6518

$$$$
ETAM-pdb3k92-A-LYS-104:MSM-pdb3k92-A-MET-101
     RDKit          3D

 20 18  0  0  0  0  0  0  0  0999 V2000
    1.2266    0.9199    0.0000 C   0  0  0  0  0  0  0  0  0  0  0  0
    0.9999    1.7507    0.5050 H   0  0  0  0  0  0  0  0  0  0  0  0
    1.4519    1.1480   -0.9447 H   0  0  0  0  0  0  0  0  0  0  0  0
    2.1020    0.4643    0.4630 H   0  0  0  0  0  0  0  0  0  0  0  0
    0.0000    0.0000    0.0000 C   0  0  0  0  0  0  0  0  0  0  0  0
    0.0238   -0.5612   -0.8159 H   0  0  0  0  0  0  0  0  0  0  0  0
    0.0226   -0.5607    0.8165 H   0  0  0  0  0  0  0  0  0  0  0  0
   -1.2266    0.8348    0.0000 N   0  0  0  0  0  4  0  0  0  0  0  0
   -0.9754    1.7971   -0.1116 H   0  0  0  0  0  0  0  0  0  0  0  0
   -1.8207    0.5561   -0.7557 H   0  0  0  0  0  0  0  0  0  0  0  0
   -1.7119    0.7155    0.8668 H   0  0  0  0  0  0  0  0  0  0  0  0
   -1.1350    4.2295    3.3280 C   0  0  0  0  0  0  0  0  0  0  0  0
   -1.8236    3.5031    3.6789 H   0  0  0  0  0  0  0  0  0  0  0  0
   -1.6686    5.1226    3.5378 H   0  0  0  0  0  0  0  0  0  0  0  0
   -0.2575    4.2008    3.9741 H   0  0  0  0  0  0  0  0  0  0  0  0
   -0.9392    4.0528    1.5164 S   0  0  0  0  0  0  0  0  0  0  0  0
    0.5307    5.0324    1.2563 C   0  0  0  0  0  0  0  0  0  0  0  0
    0.6435    5.6810    2.0115 H   0  0  0  0  0  0  0  0  0  0  0  0
    1.3335    4.4342    1.2131 H   0  0  0  0  0  0  0  0  0  0  0  0
    0.4515    5.5400    0.3962 H   0  0  0  0  0  0  0  0  0  0  0  0
  1  5  1  0
  5  8  1  0
  1  2  1  0
  1  3  1  0
  1  4  1  0
  5  6  1  0
  5  7  1  0
  8  9  1  0
  8 10  1  0
  8 11  1  0
 12 16  1  0
 16 17  1  0
 12 13  1  0
 12 14  1  0
 12 15  1  0
 17 18  1  0
 17 19  1  0
 17 20  1  0
M  CHG  1   8   1
M  END
>  <PDB_ID>  (1070) 
pdb3k92

>  <RESIDUE_NAME>  (1070) 
LYS   MET

>  <FRAG_NAME>  (1070) 
ETAM   MSM

>  <FRAG_ATOM_NUM>  (1070) 
fragi: 11  fragj: 9

>  <atom.prop.CHAIN_ID>  (1070) 
A A A A A A A A A A A Z Z Z Z Z Z Z Z Z

>  <atom.prop.IS_HEAVY_ATOM>  (1070) 
1 0 0 0 1 0 0 1 0 0 0 1 0 0 0 1 1 0 0 0

>  <DIFUSE_FUNC_ATOM>  (1070) 
n/a

>  <FINAL_SINGLE_POINT_ENERGY>  (1070) 
0

>  <NONCOV_INTER_ENERGY_QM>  (1070) 
0

>  <FF_Energy>  (1070) 
-5.75

>  <QM_Energy>  (1070) 
-13.24

>  <source>  (1070) 
ETAM_MSM

>  <Index>  (1070) 
6519

$$$$
ETAM-pdb3k92-A-LYS-116:MSM-pdb3k92-A-MET-101
     RDKit          3D

 20 18  0  0  0  0  0  0  0  0999 V2000
    1.2808    0.8727   -0.0000 C   0  0  0  0  0  0  0  0  0  0  0  0
    1.4236    1.2140    0.9295 H   0  0  0  0  0  0  0  0  0  0  0  0
    1.1305    1.6451   -0.6179 H   0  0  0  0  0  0  0  0  0  0  0  0
    2.1807    0.3456   -0.3171 H   0  0  0  0  0  0  0  0  0  0  0  0
    0.0000    0.0000    0.0000 C   0  0  0  0  0  0  0  0  0  0  0  0
    0.0300   -0.5998   -0.8162 H   0  0  0  0  0  0  0  0  0  0  0  0
    0.0298   -0.5998    0.8160 H   0  0  0  0  0  0  0  0  0  0  0  0
   -1.2808    0.7664    0.0000 N   0  0  0  0  0  4  0  0  0  0  0  0
   -1.0826    1.7387   -0.1137 H   0  0  0  0  0  0  0  0  0  0  0  0
   -1.8547    0.4492   -0.7535 H   0  0  0  0  0  0  0  0  0  0  0  0
   -1.7532    0.6183    0.8678 H   0  0  0  0  0  0  0  0  0  0  0  0
    0.2446    4.7120    0.4718 C   0  0  0  0  0  0  0  0  0  0  0  0
    0.3627    4.2555   -0.4784 H   0  0  0  0  0  0  0  0  0  0  0  0
    0.9292    4.1424    1.0491 H   0  0  0  0  0  0  0  0  0  0  0  0
    0.6253    5.7311    0.4050 H   0  0  0  0  0  0  0  0  0  0  0  0
   -1.4560    4.4122    1.0800 S   0  0  0  0  0  0  0  0  0  0  0  0
   -1.5348    5.6017    2.4092 C   0  0  0  0  0  0  0  0  0  0  0  0
   -0.6083    5.8329    2.7121 H   0  0  0  0  0  0  0  0  0  0  0  0
   -1.9952    6.4335    2.0927 H   0  0  0  0  0  0  0  0  0  0  0  0
   -2.0455    5.2153    3.1795 H   0  0  0  0  0  0  0  0  0  0  0  0
  1  5  1  0
  5  8  1  0
  1  2  1  0
  1  3  1  0
  1  4  1  0
  5  6  1  0
  5  7  1  0
  8  9  1  0
  8 10  1  0
  8 11  1  0
 12 16  1  0
 16 17  1  0
 12 13  1  0
 12 14  1  0
 12 15  1  0
 17 18  1  0
 17 19  1  0
 17 20  1  0
M  CHG  1   8   1
M  END
>  <PDB_ID>  (1071) 
pdb3k92

>  <RESIDUE_NAME>  (1071) 
LYS   MET

>  <FRAG_NAME>  (1071) 
ETAM   MSM

>  <FRAG_ATOM_NUM>  (1071) 
fragi: 11  fragj: 9

>  <atom.prop.CHAIN_ID>  (1071) 
A A A A A A A A A A A Z Z Z Z Z Z Z Z Z

>  <atom.prop.IS_HEAVY_ATOM>  (1071) 
1 0 0 0 1 0 0 1 0 0 0 1 0 0 0 1 1 0 0 0

>  <DIFUSE_FUNC_ATOM>  (1071) 
n/a

>  <FINAL_SINGLE_POINT_ENERGY>  (1071) 
0

>  <NONCOV_INTER_ENERGY_QM>  (1071) 
0

>  <FF_Energy>  (1071) 
-4.49

>  <QM_Energy>  (1071) 
-9.52

>  <source>  (1071) 
ETAM_MSM

>  <Index>  (1071) 
6527

$$$$
ETAM-pdb3kaj-A-LYS-388:MSM-pdb3kaj-A-MET-424
     RDKit          3D

 20 18  0  0  0  0  0  0  0  0999 V2000
    1.2540    0.8521    0.0000 C   0  0  0  0  0  0  0  0  0  0  0  0
    1.9302    0.4171    0.5968 H   0  0  0  0  0  0  0  0  0  0  0  0
    1.0215    1.7548    0.3648 H   0  0  0  0  0  0  0  0  0  0  0  0
    1.6785    0.9669   -0.9973 H   0  0  0  0  0  0  0  0  0  0  0  0
    0.0000    0.0000    0.0000 C   0  0  0  0  0  0  0  0  0  0  0  0
   -0.0001   -0.5874   -0.8161 H   0  0  0  0  0  0  0  0  0  0  0  0
   -0.0004   -0.5870    0.8164 H   0  0  0  0  0  0  0  0  0  0  0  0
   -1.2540    0.8242    0.0000 N   0  0  0  0  0  4  0  0  0  0  0  0
   -1.1308    1.6039    0.6103 H   0  0  0  0  0  0  0  0  0  0  0  0
   -1.4331    1.1443   -0.9283 H   0  0  0  0  0  0  0  0  0  0  0  0
   -2.0140    0.2612    0.3174 H   0  0  0  0  0  0  0  0  0  0  0  0
   -0.3241    3.5569   -3.0917 C   0  0  0  0  0  0  0  0  0  0  0  0
    0.6684    3.4290   -2.9126 H   0  0  0  0  0  0  0  0  0  0  0  0
   -0.7359    3.9116   -2.2325 H   0  0  0  0  0  0  0  0  0  0  0  0
   -0.4803    4.2571   -3.9124 H   0  0  0  0  0  0  0  0  0  0  0  0
   -1.0805    1.8940   -3.4727 S   0  0  0  0  0  0  0  0  0  0  0  0
   -2.8254    2.2830   -3.7893 C   0  0  0  0  0  0  0  0  0  0  0  0
   -2.9675    3.2609   -3.6587 H   0  0  0  0  0  0  0  0  0  0  0  0
   -3.0491    2.0276   -4.7265 H   0  0  0  0  0  0  0  0  0  0  0  0
   -3.3928    1.7682   -3.1514 H   0  0  0  0  0  0  0  0  0  0  0  0
  1  5  1  0
  5  8  1  0
  1  2  1  0
  1  3  1  0
  1  4  1  0
  5  6  1  0
  5  7  1  0
  8  9  1  0
  8 10  1  0
  8 11  1  0
 12 16  1  0
 16 17  1  0
 12 13  1  0
 12 14  1  0
 12 15  1  0
 17 18  1  0
 17 19  1  0
 17 20  1  0
M  CHG  1   8   1
M  END
>  <PDB_ID>  (1072) 
pdb3kaj

>  <RESIDUE_NAME>  (1072) 
LYS   MET

>  <FRAG_NAME>  (1072) 
ETAM   MSM

>  <FRAG_ATOM_NUM>  (1072) 
fragi: 11  fragj: 9

>  <atom.prop.CHAIN_ID>  (1072) 
A A A A A A A A A A A Z Z Z Z Z Z Z Z Z

>  <atom.prop.IS_HEAVY_ATOM>  (1072) 
1 0 0 0 1 0 0 1 0 0 0 1 0 0 0 1 1 0 0 0

>  <DIFUSE_FUNC_ATOM>  (1072) 
n/a

>  <FINAL_SINGLE_POINT_ENERGY>  (1072) 
0

>  <NONCOV_INTER_ENERGY_QM>  (1072) 
0

>  <FF_Energy>  (1072) 
-4.71

>  <QM_Energy>  (1072) 
-14.34

>  <source>  (1072) 
ETAM_MSM

>  <Index>  (1072) 
6530

$$$$
ETAM-pdb4h18-B-LYS-176:MSM-pdb4h18-B-MET-74
     RDKit          3D

 20 18  0  0  0  0  0  0  0  0999 V2000
    1.2186    0.9137   -0.0000 C   0  0  0  0  0  0  0  0  0  0  0  0
    1.6580    0.8597    0.8859 H   0  0  0  0  0  0  0  0  0  0  0  0
    0.9238    1.8378   -0.1960 H   0  0  0  0  0  0  0  0  0  0  0  0
    1.9326    0.6047   -0.7635 H   0  0  0  0  0  0  0  0  0  0  0  0
    0.0000    0.0000    0.0000 C   0  0  0  0  0  0  0  0  0  0  0  0
    0.0191   -0.5613   -0.8159 H   0  0  0  0  0  0  0  0  0  0  0  0
    0.0187   -0.5619    0.8161 H   0  0  0  0  0  0  0  0  0  0  0  0
   -1.2186    0.8389    0.0000 N   0  0  0  0  0  4  0  0  0  0  0  0
   -1.1921    1.4696    0.7774 H   0  0  0  0  0  0  0  0  0  0  0  0
   -1.2654    1.3641   -0.8511 H   0  0  0  0  0  0  0  0  0  0  0  0
   -2.0283    0.2548    0.0741 H   0  0  0  0  0  0  0  0  0  0  0  0
   -3.0460    4.2884   -0.1822 C   0  0  0  0  0  0  0  0  0  0  0  0
   -3.5751    3.4475   -0.3580 H   0  0  0  0  0  0  0  0  0  0  0  0
   -3.4373    5.0284   -0.7443 H   0  0  0  0  0  0  0  0  0  0  0  0
   -3.1202    4.5525    0.8727 H   0  0  0  0  0  0  0  0  0  0  0  0
   -1.3081    4.0379   -0.5876 S   0  0  0  0  0  0  0  0  0  0  0  0
   -1.4948    3.5370   -2.2888 C   0  0  0  0  0  0  0  0  0  0  0  0
   -1.2510    2.5700   -2.3867 H   0  0  0  0  0  0  0  0  0  0  0  0
   -2.4453    3.6666   -2.5783 H   0  0  0  0  0  0  0  0  0  0  0  0
   -0.8948    4.0883   -2.8729 H   0  0  0  0  0  0  0  0  0  0  0  0
  1  5  1  0
  5  8  1  0
  1  2  1  0
  1  3  1  0
  1  4  1  0
  5  6  1  0
  5  7  1  0
  8  9  1  0
  8 10  1  0
  8 11  1  0
 12 16  1  0
 16 17  1  0
 12 13  1  0
 12 14  1  0
 12 15  1  0
 17 18  1  0
 17 19  1  0
 17 20  1  0
M  CHG  1   8   1
M  END
>  <PDB_ID>  (1073) 
pdb4h18

>  <RESIDUE_NAME>  (1073) 
LYS   MET

>  <FRAG_NAME>  (1073) 
ETAM   MSM

>  <FRAG_ATOM_NUM>  (1073) 
fragi: 11  fragj: 9

>  <atom.prop.CHAIN_ID>  (1073) 
A A A A A A A A A A A Z Z Z Z Z Z Z Z Z

>  <atom.prop.IS_HEAVY_ATOM>  (1073) 
1 0 0 0 1 0 0 1 0 0 0 1 0 0 0 1 1 0 0 0

>  <DIFUSE_FUNC_ATOM>  (1073) 
n/a

>  <FINAL_SINGLE_POINT_ENERGY>  (1073) 
0

>  <NONCOV_INTER_ENERGY_QM>  (1073) 
0

>  <FF_Energy>  (1073) 
-3.89

>  <QM_Energy>  (1073) 
-10.64

>  <source>  (1073) 
ETAM_MSM

>  <Index>  (1073) 
6544

$$$$
ETAM-pdb3kcz-A-LYS-263:MSM-pdb3kcz-A-MET-256
     RDKit          3D

 20 18  0  0  0  0  0  0  0  0999 V2000
    1.2777    0.8490    0.0000 C   0  0  0  0  0  0  0  0  0  0  0  0
    2.0571    0.2562   -0.1614 H   0  0  0  0  0  0  0  0  0  0  0  0
    1.3589    1.3080    0.8760 H   0  0  0  0  0  0  0  0  0  0  0  0
    1.2673    1.6104   -0.7798 H   0  0  0  0  0  0  0  0  0  0  0  0
    0.0000    0.0000    0.0000 C   0  0  0  0  0  0  0  0  0  0  0  0
   -0.0011   -0.5888   -0.8163 H   0  0  0  0  0  0  0  0  0  0  0  0
   -0.0018   -0.5883    0.8157 H   0  0  0  0  0  0  0  0  0  0  0  0
   -1.2777    0.8243    0.0000 N   0  0  0  0  0  4  0  0  0  0  0  0
   -1.1085    1.6686   -0.4972 H   0  0  0  0  0  0  0  0  0  0  0  0
   -1.9934    0.2972   -0.4453 H   0  0  0  0  0  0  0  0  0  0  0  0
   -1.5269    1.0208    0.9422 H   0  0  0  0  0  0  0  0  0  0  0  0
   -3.6703    4.4856    2.4090 C   0  0  0  0  0  0  0  0  0  0  0  0
   -2.9836    4.8924    1.7895 H   0  0  0  0  0  0  0  0  0  0  0  0
   -3.3059    4.5367    3.3500 H   0  0  0  0  0  0  0  0  0  0  0  0
   -4.5864    5.0737    2.3531 H   0  0  0  0  0  0  0  0  0  0  0  0
   -4.0008    2.7502    1.9451 S   0  0  0  0  0  0  0  0  0  0  0  0
   -4.4398    2.9586    0.2018 C   0  0  0  0  0  0  0  0  0  0  0  0
   -3.6438    2.7499   -0.3625 H   0  0  0  0  0  0  0  0  0  0  0  0
   -5.1872    2.3364   -0.0234 H   0  0  0  0  0  0  0  0  0  0  0  0
   -4.7268    3.9021    0.0478 H   0  0  0  0  0  0  0  0  0  0  0  0
  1  5  1  0
  5  8  1  0
  1  2  1  0
  1  3  1  0
  1  4  1  0
  5  6  1  0
  5  7  1  0
  8  9  1  0
  8 10  1  0
  8 11  1  0
 12 16  1  0
 16 17  1  0
 12 13  1  0
 12 14  1  0
 12 15  1  0
 17 18  1  0
 17 19  1  0
 17 20  1  0
M  CHG  1   8   1
M  END
>  <PDB_ID>  (1074) 
pdb3kcz

>  <RESIDUE_NAME>  (1074) 
LYS   MET

>  <FRAG_NAME>  (1074) 
ETAM   MSM

>  <FRAG_ATOM_NUM>  (1074) 
fragi: 11  fragj: 9

>  <atom.prop.CHAIN_ID>  (1074) 
A A A A A A A A A A A Z Z Z Z Z Z Z Z Z

>  <atom.prop.IS_HEAVY_ATOM>  (1074) 
1 0 0 0 1 0 0 1 0 0 0 1 0 0 0 1 1 0 0 0

>  <DIFUSE_FUNC_ATOM>  (1074) 
n/a

>  <FINAL_SINGLE_POINT_ENERGY>  (1074) 
0

>  <NONCOV_INTER_ENERGY_QM>  (1074) 
0

>  <FF_Energy>  (1074) 
-2.9

>  <QM_Energy>  (1074) 
-8.27

>  <source>  (1074) 
ETAM_MSM

>  <Index>  (1074) 
6546

$$$$
ETAM-pdb4gzk-A-LYS-547:MSM-pdb4gzk-A-MET-190
     RDKit          3D

 20 18  0  0  0  0  0  0  0  0999 V2000
    1.2531    0.9049   -0.0000 C   0  0  0  0  0  0  0  0  0  0  0  0
    1.2978    1.3784    0.8665 H   0  0  0  0  0  0  0  0  0  0  0  0
    1.1806    1.5395   -0.7539 H   0  0  0  0  0  0  0  0  0  0  0  0
    2.1654    0.3213   -0.1234 H   0  0  0  0  0  0  0  0  0  0  0  0
    0.0000    0.0000    0.0000 C   0  0  0  0  0  0  0  0  0  0  0  0
    0.0330   -0.5796   -0.8163 H   0  0  0  0  0  0  0  0  0  0  0  0
    0.0331   -0.5802    0.8163 H   0  0  0  0  0  0  0  0  0  0  0  0
   -1.2531    0.7923    0.0000 N   0  0  0  0  0  4  0  0  0  0  0  0
   -1.7053    0.7035   -0.8883 H   0  0  0  0  0  0  0  0  0  0  0  0
   -1.8629    0.4547    0.7178 H   0  0  0  0  0  0  0  0  0  0  0  0
   -1.0400    1.7545    0.1701 H   0  0  0  0  0  0  0  0  0  0  0  0
   -2.5770    0.0198    4.9861 C   0  0  0  0  0  0  0  0  0  0  0  0
   -3.0926    0.8078    5.3638 H   0  0  0  0  0  0  0  0  0  0  0  0
   -1.5904    0.2127    5.1267 H   0  0  0  0  0  0  0  0  0  0  0  0
   -2.8406   -0.8706    5.5571 H   0  0  0  0  0  0  0  0  0  0  0  0
   -2.9458   -0.2121    3.2327 S   0  0  0  0  0  0  0  0  0  0  0  0
   -4.3017    0.8654    2.9434 C   0  0  0  0  0  0  0  0  0  0  0  0
   -4.2438    1.6748    3.5408 H   0  0  0  0  0  0  0  0  0  0  0  0
   -4.3075    1.1768    1.9856 H   0  0  0  0  0  0  0  0  0  0  0  0
   -5.1726    0.3953    3.1299 H   0  0  0  0  0  0  0  0  0  0  0  0
  1  5  1  0
  5  8  1  0
  1  2  1  0
  1  3  1  0
  1  4  1  0
  5  6  1  0
  5  7  1  0
  8  9  1  0
  8 10  1  0
  8 11  1  0
 12 16  1  0
 16 17  1  0
 12 13  1  0
 12 14  1  0
 12 15  1  0
 17 18  1  0
 17 19  1  0
 17 20  1  0
M  CHG  1   8   1
M  END
>  <PDB_ID>  (1075) 
pdb4gzk

>  <RESIDUE_NAME>  (1075) 
LYS   MET

>  <FRAG_NAME>  (1075) 
ETAM   MSM

>  <FRAG_ATOM_NUM>  (1075) 
fragi: 11  fragj: 9

>  <atom.prop.CHAIN_ID>  (1075) 
A A A A A A A A A A A Z Z Z Z Z Z Z Z Z

>  <atom.prop.IS_HEAVY_ATOM>  (1075) 
1 0 0 0 1 0 0 1 0 0 0 1 0 0 0 1 1 0 0 0

>  <DIFUSE_FUNC_ATOM>  (1075) 
n/a

>  <FINAL_SINGLE_POINT_ENERGY>  (1075) 
0

>  <NONCOV_INTER_ENERGY_QM>  (1075) 
0

>  <FF_Energy>  (1075) 
-4.52

>  <QM_Energy>  (1075) 
-11.72

>  <source>  (1075) 
ETAM_MSM

>  <Index>  (1075) 
6551

$$$$
ETAM-pdb4h2c-A-LYS-192:MSM-pdb4h2c-A-MET-79
     RDKit          3D

 20 18  0  0  0  0  0  0  0  0999 V2000
    1.2646    0.7979    0.0000 C   0  0  0  0  0  0  0  0  0  0  0  0
    2.0460    0.1850    0.1300 H   0  0  0  0  0  0  0  0  0  0  0  0
    1.2391    1.4637    0.7475 H   0  0  0  0  0  0  0  0  0  0  0  0
    1.4210    1.3452   -0.9296 H   0  0  0  0  0  0  0  0  0  0  0  0
    0.0000    0.0000    0.0000 C   0  0  0  0  0  0  0  0  0  0  0  0
   -0.0182   -0.6085   -0.8160 H   0  0  0  0  0  0  0  0  0  0  0  0
   -0.0179   -0.6083    0.8159 H   0  0  0  0  0  0  0  0  0  0  0  0
   -1.2646    0.8149    0.0000 N   0  0  0  0  0  4  0  0  0  0  0  0
   -2.0470    0.1972   -0.0166 H   0  0  0  0  0  0  0  0  0  0  0  0
   -1.2887    1.3743    0.8244 H   0  0  0  0  0  0  0  0  0  0  0  0
   -1.2737    1.3979   -0.8083 H   0  0  0  0  0  0  0  0  0  0  0  0
   -2.8765   -0.3747    3.3528 C   0  0  0  0  0  0  0  0  0  0  0  0
   -3.3902   -0.8286    2.5702 H   0  0  0  0  0  0  0  0  0  0  0  0
   -3.0431    0.6400    3.1944 H   0  0  0  0  0  0  0  0  0  0  0  0
   -3.3905   -0.6457    4.2751 H   0  0  0  0  0  0  0  0  0  0  0  0
   -1.1461   -0.7638    3.3066 S   0  0  0  0  0  0  0  0  0  0  0  0
   -1.1484   -2.5613    3.1812 C   0  0  0  0  0  0  0  0  0  0  0  0
   -1.7927   -2.8421    2.4707 H   0  0  0  0  0  0  0  0  0  0  0  0
   -0.2298   -2.8773    2.9452 H   0  0  0  0  0  0  0  0  0  0  0  0
   -1.4229   -2.9534    4.0582 H   0  0  0  0  0  0  0  0  0  0  0  0
  1  5  1  0
  5  8  1  0
  1  2  1  0
  1  3  1  0
  1  4  1  0
  5  6  1  0
  5  7  1  0
  8  9  1  0
  8 10  1  0
  8 11  1  0
 12 16  1  0
 16 17  1  0
 12 13  1  0
 12 14  1  0
 12 15  1  0
 17 18  1  0
 17 19  1  0
 17 20  1  0
M  CHG  1   8   1
M  END
>  <PDB_ID>  (1076) 
pdb4h2c

>  <RESIDUE_NAME>  (1076) 
LYS   MET

>  <FRAG_NAME>  (1076) 
ETAM   MSM

>  <FRAG_ATOM_NUM>  (1076) 
fragi: 11  fragj: 9

>  <atom.prop.CHAIN_ID>  (1076) 
A A A A A A A A A A A Z Z Z Z Z Z Z Z Z

>  <atom.prop.IS_HEAVY_ATOM>  (1076) 
1 0 0 0 1 0 0 1 0 0 0 1 0 0 0 1 1 0 0 0

>  <DIFUSE_FUNC_ATOM>  (1076) 
n/a

>  <FINAL_SINGLE_POINT_ENERGY>  (1076) 
0

>  <NONCOV_INTER_ENERGY_QM>  (1076) 
0

>  <FF_Energy>  (1076) 
-3.64

>  <QM_Energy>  (1076) 
-9.59

>  <source>  (1076) 
ETAM_MSM

>  <Index>  (1076) 
6558

$$$$
ETAM-pdb4gzk-A-LYS-619:MSM-pdb4gzk-A-MET-612
     RDKit          3D

 20 18  0  0  0  0  0  0  0  0999 V2000
    1.2514    0.8849    0.0000 C   0  0  0  0  0  0  0  0  0  0  0  0
    1.2588    1.4134    0.8362 H   0  0  0  0  0  0  0  0  0  0  0  0
    1.2175    1.4714   -0.7955 H   0  0  0  0  0  0  0  0  0  0  0  0
    2.1507    0.2706   -0.0437 H   0  0  0  0  0  0  0  0  0  0  0  0
    0.0000    0.0000    0.0000 C   0  0  0  0  0  0  0  0  0  0  0  0
    0.0341   -0.5939   -0.8166 H   0  0  0  0  0  0  0  0  0  0  0  0
    0.0343   -0.5935    0.8166 H   0  0  0  0  0  0  0  0  0  0  0  0
   -1.2514    0.7708    0.0000 N   0  0  0  0  0  4  0  0  0  0  0  0
   -1.5168    0.9909   -0.9416 H   0  0  0  0  0  0  0  0  0  0  0  0
   -1.9825    0.2344    0.4289 H   0  0  0  0  0  0  0  0  0  0  0  0
   -1.1268    1.6231    0.5126 H   0  0  0  0  0  0  0  0  0  0  0  0
   -1.6413    4.5485   -0.3390 C   0  0  0  0  0  0  0  0  0  0  0  0
   -2.3149    4.0145    0.1995 H   0  0  0  0  0  0  0  0  0  0  0  0
   -1.9977    5.4954   -0.4097 H   0  0  0  0  0  0  0  0  0  0  0  0
   -0.6631    4.5361    0.1415 H   0  0  0  0  0  0  0  0  0  0  0  0
   -1.5110    3.8274   -2.0229 S   0  0  0  0  0  0  0  0  0  0  0  0
   -3.2259    3.9169   -2.5612 C   0  0  0  0  0  0  0  0  0  0  0  0
   -3.7648    4.4018   -1.8722 H   0  0  0  0  0  0  0  0  0  0  0  0
   -3.2754    4.4069   -3.4317 H   0  0  0  0  0  0  0  0  0  0  0  0
   -3.5862    2.9910   -2.6771 H   0  0  0  0  0  0  0  0  0  0  0  0
  1  5  1  0
  5  8  1  0
  1  2  1  0
  1  3  1  0
  1  4  1  0
  5  6  1  0
  5  7  1  0
  8  9  1  0
  8 10  1  0
  8 11  1  0
 12 16  1  0
 16 17  1  0
 12 13  1  0
 12 14  1  0
 12 15  1  0
 17 18  1  0
 17 19  1  0
 17 20  1  0
M  CHG  1   8   1
M  END
>  <PDB_ID>  (1077) 
pdb4gzk

>  <RESIDUE_NAME>  (1077) 
LYS   MET

>  <FRAG_NAME>  (1077) 
ETAM   MSM

>  <FRAG_ATOM_NUM>  (1077) 
fragi: 11  fragj: 9

>  <atom.prop.CHAIN_ID>  (1077) 
A A A A A A A A A A A Z Z Z Z Z Z Z Z Z

>  <atom.prop.IS_HEAVY_ATOM>  (1077) 
1 0 0 0 1 0 0 1 0 0 0 1 0 0 0 1 1 0 0 0

>  <DIFUSE_FUNC_ATOM>  (1077) 
n/a

>  <FINAL_SINGLE_POINT_ENERGY>  (1077) 
0

>  <NONCOV_INTER_ENERGY_QM>  (1077) 
0

>  <FF_Energy>  (1077) 
-3.87

>  <QM_Energy>  (1077) 
-10.76

>  <source>  (1077) 
ETAM_MSM

>  <Index>  (1077) 
6559

$$$$
ETAM-pdb3kg4-A-LYS-46:MSM-pdb3kg4-A-MET-138
     RDKit          3D

 20 18  0  0  0  0  0  0  0  0999 V2000
    1.2324    0.8807   -0.0000 C   0  0  0  0  0  0  0  0  0  0  0  0
    1.2127    1.4567    0.8169 H   0  0  0  0  0  0  0  0  0  0  0  0
    1.2128    1.4575   -0.8168 H   0  0  0  0  0  0  0  0  0  0  0  0
    2.1570    0.3035    0.0003 H   0  0  0  0  0  0  0  0  0  0  0  0
    0.0000    0.0000    0.0000 C   0  0  0  0  0  0  0  0  0  0  0  0
    0.0110   -0.5766   -0.8165 H   0  0  0  0  0  0  0  0  0  0  0  0
    0.0105   -0.5768    0.8160 H   0  0  0  0  0  0  0  0  0  0  0  0
   -1.2324    0.8267    0.0000 N   0  0  0  0  0  4  0  0  0  0  0  0
   -1.9711    0.3252    0.4499 H   0  0  0  0  0  0  0  0  0  0  0  0
   -1.0612    1.6803    0.4920 H   0  0  0  0  0  0  0  0  0  0  0  0
   -1.4962    1.0332   -0.9428 H   0  0  0  0  0  0  0  0  0  0  0  0
   -2.6392   -2.4742    3.9114 C   0  0  0  0  0  0  0  0  0  0  0  0
   -1.7795   -3.0427    4.0389 H   0  0  0  0  0  0  0  0  0  0  0  0
   -3.4070   -3.1547    4.0732 H   0  0  0  0  0  0  0  0  0  0  0  0
   -2.6717   -1.7452    4.7210 H   0  0  0  0  0  0  0  0  0  0  0  0
   -2.7204   -1.8192    2.1911 S   0  0  0  0  0  0  0  0  0  0  0  0
   -2.4145   -0.0397    2.3364 C   0  0  0  0  0  0  0  0  0  0  0  0
   -3.1336    0.3705    2.8943 H   0  0  0  0  0  0  0  0  0  0  0  0
   -1.5269    0.1036    2.7684 H   0  0  0  0  0  0  0  0  0  0  0  0
   -2.4181    0.3671    1.4252 H   0  0  0  0  0  0  0  0  0  0  0  0
  1  5  1  0
  5  8  1  0
  1  2  1  0
  1  3  1  0
  1  4  1  0
  5  6  1  0
  5  7  1  0
  8  9  1  0
  8 10  1  0
  8 11  1  0
 12 16  1  0
 16 17  1  0
 12 13  1  0
 12 14  1  0
 12 15  1  0
 17 18  1  0
 17 19  1  0
 17 20  1  0
M  CHG  1   8   1
M  END
>  <PDB_ID>  (1078) 
pdb3kg4

>  <RESIDUE_NAME>  (1078) 
LYS   MET

>  <FRAG_NAME>  (1078) 
ETAM   MSM

>  <FRAG_ATOM_NUM>  (1078) 
fragi: 11  fragj: 9

>  <atom.prop.CHAIN_ID>  (1078) 
A A A A A A A A A A A Z Z Z Z Z Z Z Z Z

>  <atom.prop.IS_HEAVY_ATOM>  (1078) 
1 0 0 0 1 0 0 1 0 0 0 1 0 0 0 1 1 0 0 0

>  <DIFUSE_FUNC_ATOM>  (1078) 
n/a

>  <FINAL_SINGLE_POINT_ENERGY>  (1078) 
0

>  <NONCOV_INTER_ENERGY_QM>  (1078) 
0

>  <FF_Energy>  (1078) 
38.21

>  <QM_Energy>  (1078) 
17.35

>  <source>  (1078) 
ETAM_MSM

>  <Index>  (1078) 
6566

$$$$
ETAM-pdb4h51-A-LYS-15:MSM-pdb4h51-A-MET-7
     RDKit          3D

 20 18  0  0  0  0  0  0  0  0999 V2000
    1.2332    0.8761    0.0000 C   0  0  0  0  0  0  0  0  0  0  0  0
    1.2125    1.4565    0.8165 H   0  0  0  0  0  0  0  0  0  0  0  0
    1.2113    1.4567   -0.8169 H   0  0  0  0  0  0  0  0  0  0  0  0
    2.1600    0.3023    0.0001 H   0  0  0  0  0  0  0  0  0  0  0  0
    0.0000    0.0000    0.0000 C   0  0  0  0  0  0  0  0  0  0  0  0
    0.0107   -0.5793   -0.8160 H   0  0  0  0  0  0  0  0  0  0  0  0
    0.0107   -0.5797    0.8166 H   0  0  0  0  0  0  0  0  0  0  0  0
   -1.2332    0.8242   -0.0000 N   0  0  0  0  0  4  0  0  0  0  0  0
   -1.4070    1.1652    0.9250 H   0  0  0  0  0  0  0  0  0  0  0  0
   -1.1183    1.5976   -0.6233 H   0  0  0  0  0  0  0  0  0  0  0  0
   -2.0074    0.2665   -0.2998 H   0  0  0  0  0  0  0  0  0  0  0  0
   -2.7670    0.3298    4.7244 C   0  0  0  0  0  0  0  0  0  0  0  0
   -2.0813    0.6892    5.4068 H   0  0  0  0  0  0  0  0  0  0  0  0
   -2.5568   -0.6789    4.6545 H   0  0  0  0  0  0  0  0  0  0  0  0
   -3.7636    0.4426    5.1511 H   0  0  0  0  0  0  0  0  0  0  0  0
   -2.5334    1.1382    3.1066 S   0  0  0  0  0  0  0  0  0  0  0  0
   -1.0350    0.3652    2.5239 C   0  0  0  0  0  0  0  0  0  0  0  0
   -0.5558   -0.0670    3.2911 H   0  0  0  0  0  0  0  0  0  0  0  0
   -1.2569   -0.3330    1.8402 H   0  0  0  0  0  0  0  0  0  0  0  0
   -0.4371    1.0544    2.1089 H   0  0  0  0  0  0  0  0  0  0  0  0
  1  5  1  0
  5  8  1  0
  1  2  1  0
  1  3  1  0
  1  4  1  0
  5  6  1  0
  5  7  1  0
  8  9  1  0
  8 10  1  0
  8 11  1  0
 12 16  1  0
 16 17  1  0
 12 13  1  0
 12 14  1  0
 12 15  1  0
 17 18  1  0
 17 19  1  0
 17 20  1  0
M  CHG  1   8   1
M  END
>  <PDB_ID>  (1079) 
pdb4h51

>  <RESIDUE_NAME>  (1079) 
LYS   MET

>  <FRAG_NAME>  (1079) 
ETAM   MSM

>  <FRAG_ATOM_NUM>  (1079) 
fragi: 11  fragj: 9

>  <atom.prop.CHAIN_ID>  (1079) 
A A A A A A A A A A A Z Z Z Z Z Z Z Z Z

>  <atom.prop.IS_HEAVY_ATOM>  (1079) 
1 0 0 0 1 0 0 1 0 0 0 1 0 0 0 1 1 0 0 0

>  <DIFUSE_FUNC_ATOM>  (1079) 
n/a

>  <FINAL_SINGLE_POINT_ENERGY>  (1079) 
0

>  <NONCOV_INTER_ENERGY_QM>  (1079) 
0

>  <FF_Energy>  (1079) 
48.39

>  <QM_Energy>  (1079) 
13.27

>  <source>  (1079) 
ETAM_MSM

>  <Index>  (1079) 
6569

$$$$
ETAM-pdb3k9d-C-LYS-392:MSM-pdb3k9d-C-MET-363
     RDKit          3D

 20 18  0  0  0  0  0  0  0  0999 V2000
    1.2081    0.8987    0.0000 C   0  0  0  0  0  0  0  0  0  0  0  0
    1.4966    1.0460    0.9397 H   0  0  0  0  0  0  0  0  0  0  0  0
    0.9638    1.7607   -0.4287 H   0  0  0  0  0  0  0  0  0  0  0  0
    2.0230    0.4373   -0.5577 H   0  0  0  0  0  0  0  0  0  0  0  0
    0.0000    0.0000    0.0000 C   0  0  0  0  0  0  0  0  0  0  0  0
    0.0165   -0.5683   -0.8161 H   0  0  0  0  0  0  0  0  0  0  0  0
    0.0159   -0.5689    0.8166 H   0  0  0  0  0  0  0  0  0  0  0  0
   -1.2081    0.8322    0.0000 N   0  0  0  0  0  4  0  0  0  0  0  0
   -1.3769    1.1903    0.9218 H   0  0  0  0  0  0  0  0  0  0  0  0
   -1.0936    1.6010   -0.6332 H   0  0  0  0  0  0  0  0  0  0  0  0
   -1.9987    0.2871   -0.2879 H   0  0  0  0  0  0  0  0  0  0  0  0
   -2.8311    3.2121   -1.2353 C   0  0  0  0  0  0  0  0  0  0  0  0
   -1.9057    3.4137   -1.7330 H   0  0  0  0  0  0  0  0  0  0  0  0
   -2.4558    2.7476   -0.3477 H   0  0  0  0  0  0  0  0  0  0  0  0
   -3.2425    4.1761   -0.9361 H   0  0  0  0  0  0  0  0  0  0  0  0
   -3.8041    2.0337   -2.1877 S   0  0  0  0  0  0  0  0  0  0  0  0
   -5.2818    1.8183   -1.2357 C   0  0  0  0  0  0  0  0  0  0  0  0
   -6.0869    1.8401   -1.8361 H   0  0  0  0  0  0  0  0  0  0  0  0
   -5.2588    0.9353   -0.7572 H   0  0  0  0  0  0  0  0  0  0  0  0
   -5.3658    2.5534   -0.5558 H   0  0  0  0  0  0  0  0  0  0  0  0
  1  5  1  0
  5  8  1  0
  1  2  1  0
  1  3  1  0
  1  4  1  0
  5  6  1  0
  5  7  1  0
  8  9  1  0
  8 10  1  0
  8 11  1  0
 12 16  1  0
 16 17  1  0
 12 13  1  0
 12 14  1  0
 12 15  1  0
 17 18  1  0
 17 19  1  0
 17 20  1  0
M  CHG  1   8   1
M  END
>  <PDB_ID>  (1080) 
pdb3k9d

>  <RESIDUE_NAME>  (1080) 
LYS   MET

>  <FRAG_NAME>  (1080) 
ETAM   MSM

>  <FRAG_ATOM_NUM>  (1080) 
fragi: 11  fragj: 9

>  <atom.prop.CHAIN_ID>  (1080) 
A A A A A A A A A A A Z Z Z Z Z Z Z Z Z

>  <atom.prop.IS_HEAVY_ATOM>  (1080) 
1 0 0 0 1 0 0 1 0 0 0 1 0 0 0 1 1 0 0 0

>  <DIFUSE_FUNC_ATOM>  (1080) 
n/a

>  <FINAL_SINGLE_POINT_ENERGY>  (1080) 
0

>  <NONCOV_INTER_ENERGY_QM>  (1080) 
0

>  <FF_Energy>  (1080) 
1.78

>  <QM_Energy>  (1080) 
-5.14

>  <source>  (1080) 
ETAM_MSM

>  <Index>  (1080) 
6572

$$$$
ETAM-pdb3khx-A-LYS-5:MSM-pdb3khx-A-MET-133
     RDKit          3D

 20 18  0  0  0  0  0  0  0  0999 V2000
    1.2578    0.8643   -0.0000 C   0  0  0  0  0  0  0  0  0  0  0  0
    1.1441    1.5861    0.6686 H   0  0  0  0  0  0  0  0  0  0  0  0
    1.3851    1.2353   -0.9084 H   0  0  0  0  0  0  0  0  0  0  0  0
    2.1299    0.2670    0.2662 H   0  0  0  0  0  0  0  0  0  0  0  0
    0.0000    0.0000    0.0000 C   0  0  0  0  0  0  0  0  0  0  0  0
    0.0124   -0.5903   -0.8153 H   0  0  0  0  0  0  0  0  0  0  0  0
    0.0122   -0.5889    0.8173 H   0  0  0  0  0  0  0  0  0  0  0  0
   -1.2578    0.8051   -0.0000 N   0  0  0  0  0  4  0  0  0  0  0  0
   -1.6427    0.8143    0.9217 H   0  0  0  0  0  0  0  0  0  0  0  0
   -1.0502    1.7392   -0.2875 H   0  0  0  0  0  0  0  0  0  0  0  0
   -1.9114    0.3951   -0.6348 H   0  0  0  0  0  0  0  0  0  0  0  0
   -1.5254    4.1070    4.2226 C   0  0  0  0  0  0  0  0  0  0  0  0
   -1.6022    3.4216    4.9626 H   0  0  0  0  0  0  0  0  0  0  0  0
   -2.4206    4.5712    4.1421 H   0  0  0  0  0  0  0  0  0  0  0  0
   -0.7571    4.8363    4.4792 H   0  0  0  0  0  0  0  0  0  0  0  0
   -1.0911    3.3012    2.6610 S   0  0  0  0  0  0  0  0  0  0  0  0
    0.5996    2.8314    3.0225 C   0  0  0  0  0  0  0  0  0  0  0  0
    0.6308    2.3277    3.8875 H   0  0  0  0  0  0  0  0  0  0  0  0
    0.9511    2.2493    2.2872 H   0  0  0  0  0  0  0  0  0  0  0  0
    1.1679    3.6526    3.0959 H   0  0  0  0  0  0  0  0  0  0  0  0
  1  5  1  0
  5  8  1  0
  1  2  1  0
  1  3  1  0
  1  4  1  0
  5  6  1  0
  5  7  1  0
  8  9  1  0
  8 10  1  0
  8 11  1  0
 12 16  1  0
 16 17  1  0
 12 13  1  0
 12 14  1  0
 12 15  1  0
 17 18  1  0
 17 19  1  0
 17 20  1  0
M  CHG  1   8   1
M  END
>  <PDB_ID>  (1081) 
pdb3khx

>  <RESIDUE_NAME>  (1081) 
LYS   MET

>  <FRAG_NAME>  (1081) 
ETAM   MSM

>  <FRAG_ATOM_NUM>  (1081) 
fragi: 11  fragj: 9

>  <atom.prop.CHAIN_ID>  (1081) 
A A A A A A A A A A A Z Z Z Z Z Z Z Z Z

>  <atom.prop.IS_HEAVY_ATOM>  (1081) 
1 0 0 0 1 0 0 1 0 0 0 1 0 0 0 1 1 0 0 0

>  <DIFUSE_FUNC_ATOM>  (1081) 
n/a

>  <FINAL_SINGLE_POINT_ENERGY>  (1081) 
0

>  <NONCOV_INTER_ENERGY_QM>  (1081) 
0

>  <FF_Energy>  (1081) 
-1.06

>  <QM_Energy>  (1081) 
-8.6

>  <source>  (1081) 
ETAM_MSM

>  <Index>  (1081) 
6579

$$$$
ETAM-pdb4h75-A-LYS-148:MSM-pdb4h75-A-MET-140
     RDKit          3D

 20 18  0  0  0  0  0  0  0  0999 V2000
    1.2534    0.8693   -0.0000 C   0  0  0  0  0  0  0  0  0  0  0  0
    1.2149    1.4793   -0.7837 H   0  0  0  0  0  0  0  0  0  0  0  0
    2.0491    0.2765   -0.0591 H   0  0  0  0  0  0  0  0  0  0  0  0
    1.3257    1.4671    0.9085 H   0  0  0  0  0  0  0  0  0  0  0  0
    0.0000    0.0000    0.0000 C   0  0  0  0  0  0  0  0  0  0  0  0
    0.0108   -0.5841   -0.8163 H   0  0  0  0  0  0  0  0  0  0  0  0
    0.0099   -0.5845    0.8161 H   0  0  0  0  0  0  0  0  0  0  0  0
   -1.2534    0.8148    0.0000 N   0  0  0  0  0  4  0  0  0  0  0  0
   -2.0058    0.2591   -0.3480 H   0  0  0  0  0  0  0  0  0  0  0  0
   -1.4543    1.1085    0.9332 H   0  0  0  0  0  0  0  0  0  0  0  0
   -1.1254    1.6137   -0.5849 H   0  0  0  0  0  0  0  0  0  0  0  0
   -2.8267    3.2497    2.7338 C   0  0  0  0  0  0  0  0  0  0  0  0
   -3.3530    2.4224    2.4583 H   0  0  0  0  0  0  0  0  0  0  0  0
   -2.7488    3.8348    1.9032 H   0  0  0  0  0  0  0  0  0  0  0  0
   -3.3882    3.7889    3.4967 H   0  0  0  0  0  0  0  0  0  0  0  0
   -1.2079    2.7991    3.3502 S   0  0  0  0  0  0  0  0  0  0  0  0
   -0.3750    4.3628    3.2066 C   0  0  0  0  0  0  0  0  0  0  0  0
   -0.2671    4.7783    4.1139 H   0  0  0  0  0  0  0  0  0  0  0  0
    0.5320    4.2314    2.7974 H   0  0  0  0  0  0  0  0  0  0  0  0
   -0.9089    4.9831    2.6254 H   0  0  0  0  0  0  0  0  0  0  0  0
  1  5  1  0
  5  8  1  0
  1  2  1  0
  1  3  1  0
  1  4  1  0
  5  6  1  0
  5  7  1  0
  8  9  1  0
  8 10  1  0
  8 11  1  0
 12 16  1  0
 16 17  1  0
 12 13  1  0
 12 14  1  0
 12 15  1  0
 17 18  1  0
 17 19  1  0
 17 20  1  0
M  CHG  1   8   1
M  END
>  <PDB_ID>  (1082) 
pdb4h75

>  <RESIDUE_NAME>  (1082) 
LYS   MET

>  <FRAG_NAME>  (1082) 
ETAM   MSM

>  <FRAG_ATOM_NUM>  (1082) 
fragi: 11  fragj: 9

>  <atom.prop.CHAIN_ID>  (1082) 
A A A A A A A A A A A Z Z Z Z Z Z Z Z Z

>  <atom.prop.IS_HEAVY_ATOM>  (1082) 
1 0 0 0 1 0 0 1 0 0 0 1 0 0 0 1 1 0 0 0

>  <DIFUSE_FUNC_ATOM>  (1082) 
n/a

>  <FINAL_SINGLE_POINT_ENERGY>  (1082) 
0

>  <NONCOV_INTER_ENERGY_QM>  (1082) 
0

>  <FF_Energy>  (1082) 
-3.83

>  <QM_Energy>  (1082) 
-10.21

>  <source>  (1082) 
ETAM_MSM

>  <Index>  (1082) 
6581

$$$$
ETAM-pdb3khw-B-LYS-574:MSM-pdb3khw-B-MET-570
     RDKit          3D

 20 18  0  0  0  0  0  0  0  0999 V2000
    1.2799    0.8726    0.0000 C   0  0  0  0  0  0  0  0  0  0  0  0
    1.8631    0.5616    0.7449 H   0  0  0  0  0  0  0  0  0  0  0  0
    1.0064    1.8174    0.1505 H   0  0  0  0  0  0  0  0  0  0  0  0
    1.8332    0.8061   -0.9368 H   0  0  0  0  0  0  0  0  0  0  0  0
    0.0000    0.0000    0.0000 C   0  0  0  0  0  0  0  0  0  0  0  0
    0.0143   -0.5858   -0.8166 H   0  0  0  0  0  0  0  0  0  0  0  0
    0.0144   -0.5865    0.8164 H   0  0  0  0  0  0  0  0  0  0  0  0
   -1.2799    0.8070   -0.0000 N   0  0  0  0  0  4  0  0  0  0  0  0
   -1.6219    0.8631    0.9334 H   0  0  0  0  0  0  0  0  0  0  0  0
   -1.0823    1.7182   -0.3497 H   0  0  0  0  0  0  0  0  0  0  0  0
   -1.9445    0.3506   -0.5840 H   0  0  0  0  0  0  0  0  0  0  0  0
   -1.4328   -2.7690   -3.8795 C   0  0  0  0  0  0  0  0  0  0  0  0
   -1.4026   -1.9260   -4.4626 H   0  0  0  0  0  0  0  0  0  0  0  0
   -2.3996   -3.1058   -3.9325 H   0  0  0  0  0  0  0  0  0  0  0  0
   -0.7799   -3.5197   -4.3249 H   0  0  0  0  0  0  0  0  0  0  0  0
   -0.9836   -2.3832   -2.1748 S   0  0  0  0  0  0  0  0  0  0  0  0
   -0.8519   -3.9945   -1.3687 C   0  0  0  0  0  0  0  0  0  0  0  0
    0.1120   -4.2402   -1.2824 H   0  0  0  0  0  0  0  0  0  0  0  0
   -1.2700   -3.9440   -0.4633 H   0  0  0  0  0  0  0  0  0  0  0  0
   -1.3257   -4.6779   -1.9218 H   0  0  0  0  0  0  0  0  0  0  0  0
  1  5  1  0
  5  8  1  0
  1  2  1  0
  1  3  1  0
  1  4  1  0
  5  6  1  0
  5  7  1  0
  8  9  1  0
  8 10  1  0
  8 11  1  0
 12 16  1  0
 16 17  1  0
 12 13  1  0
 12 14  1  0
 12 15  1  0
 17 18  1  0
 17 19  1  0
 17 20  1  0
M  CHG  1   8   1
M  END
>  <PDB_ID>  (1083) 
pdb3khw

>  <RESIDUE_NAME>  (1083) 
LYS   MET

>  <FRAG_NAME>  (1083) 
ETAM   MSM

>  <FRAG_ATOM_NUM>  (1083) 
fragi: 11  fragj: 9

>  <atom.prop.CHAIN_ID>  (1083) 
A A A A A A A A A A A Z Z Z Z Z Z Z Z Z

>  <atom.prop.IS_HEAVY_ATOM>  (1083) 
1 0 0 0 1 0 0 1 0 0 0 1 0 0 0 1 1 0 0 0

>  <DIFUSE_FUNC_ATOM>  (1083) 
n/a

>  <FINAL_SINGLE_POINT_ENERGY>  (1083) 
0

>  <NONCOV_INTER_ENERGY_QM>  (1083) 
0

>  <FF_Energy>  (1083) 
-1.59

>  <QM_Energy>  (1083) 
-10.44

>  <source>  (1083) 
ETAM_MSM

>  <Index>  (1083) 
6587

$$$$
ETAM-pdb4h73-A-LYS-196:MSM-pdb4h73-A-MET-84
     RDKit          3D

 20 18  0  0  0  0  0  0  0  0999 V2000
    1.2582    0.8765   -0.0000 C   0  0  0  0  0  0  0  0  0  0  0  0
    1.2984    1.3667    0.8644 H   0  0  0  0  0  0  0  0  0  0  0  0
    1.1952    1.5150   -0.7593 H   0  0  0  0  0  0  0  0  0  0  0  0
    2.1660    0.2837   -0.1115 H   0  0  0  0  0  0  0  0  0  0  0  0
    0.0000    0.0000    0.0000 C   0  0  0  0  0  0  0  0  0  0  0  0
    0.0166   -0.5847   -0.8160 H   0  0  0  0  0  0  0  0  0  0  0  0
    0.0164   -0.5846    0.8160 H   0  0  0  0  0  0  0  0  0  0  0  0
   -1.2582    0.8071    0.0000 N   0  0  0  0  0  4  0  0  0  0  0  0
   -1.1555    1.5757   -0.6298 H   0  0  0  0  0  0  0  0  0  0  0  0
   -2.0184    0.2299   -0.2943 H   0  0  0  0  0  0  0  0  0  0  0  0
   -1.4294    1.1469    0.9230 H   0  0  0  0  0  0  0  0  0  0  0  0
   -3.2101    0.4419    3.2350 C   0  0  0  0  0  0  0  0  0  0  0  0
   -3.5238    1.0612    2.4891 H   0  0  0  0  0  0  0  0  0  0  0  0
   -2.4573    0.9300    3.7184 H   0  0  0  0  0  0  0  0  0  0  0  0
   -4.0330    0.2746    3.9299 H   0  0  0  0  0  0  0  0  0  0  0  0
   -2.6025   -1.1220    2.5419 S   0  0  0  0  0  0  0  0  0  0  0  0
   -4.0427   -1.7264    1.6416 C   0  0  0  0  0  0  0  0  0  0  0  0
   -4.8524   -1.6456    2.2219 H   0  0  0  0  0  0  0  0  0  0  0  0
   -4.1662   -1.1817    0.8136 H   0  0  0  0  0  0  0  0  0  0  0  0
   -3.8998   -2.6841    1.3951 H   0  0  0  0  0  0  0  0  0  0  0  0
  1  5  1  0
  5  8  1  0
  1  2  1  0
  1  3  1  0
  1  4  1  0
  5  6  1  0
  5  7  1  0
  8  9  1  0
  8 10  1  0
  8 11  1  0
 12 16  1  0
 16 17  1  0
 12 13  1  0
 12 14  1  0
 12 15  1  0
 17 18  1  0
 17 19  1  0
 17 20  1  0
M  CHG  1   8   1
M  END
>  <PDB_ID>  (1084) 
pdb4h73

>  <RESIDUE_NAME>  (1084) 
LYS   MET

>  <FRAG_NAME>  (1084) 
ETAM   MSM

>  <FRAG_ATOM_NUM>  (1084) 
fragi: 11  fragj: 9

>  <atom.prop.CHAIN_ID>  (1084) 
A A A A A A A A A A A Z Z Z Z Z Z Z Z Z

>  <atom.prop.IS_HEAVY_ATOM>  (1084) 
1 0 0 0 1 0 0 1 0 0 0 1 0 0 0 1 1 0 0 0

>  <DIFUSE_FUNC_ATOM>  (1084) 
n/a

>  <FINAL_SINGLE_POINT_ENERGY>  (1084) 
0

>  <NONCOV_INTER_ENERGY_QM>  (1084) 
0

>  <FF_Energy>  (1084) 
-4.04

>  <QM_Energy>  (1084) 
-10.56

>  <source>  (1084) 
ETAM_MSM

>  <Index>  (1084) 
6593

$$$$
ETAM-pdb4h73-B-LYS-196:MSM-pdb4h73-B-MET-84
     RDKit          3D

 20 18  0  0  0  0  0  0  0  0999 V2000
    1.2526    0.8815   -0.0000 C   0  0  0  0  0  0  0  0  0  0  0  0
    1.1542    1.5669    0.7170 H   0  0  0  0  0  0  0  0  0  0  0  0
    1.3225    1.3270   -0.8891 H   0  0  0  0  0  0  0  0  0  0  0  0
    2.1646    0.3129    0.1816 H   0  0  0  0  0  0  0  0  0  0  0  0
    0.0000    0.0000    0.0000 C   0  0  0  0  0  0  0  0  0  0  0  0
    0.0088   -0.5750   -0.8168 H   0  0  0  0  0  0  0  0  0  0  0  0
    0.0082   -0.5747    0.8164 H   0  0  0  0  0  0  0  0  0  0  0  0
   -1.2526    0.8315   -0.0000 N   0  0  0  0  0  4  0  0  0  0  0  0
   -1.0478    1.7260   -0.3894 H   0  0  0  0  0  0  0  0  0  0  0  0
   -1.9466    0.3727   -0.5491 H   0  0  0  0  0  0  0  0  0  0  0  0
   -1.5736    0.9344    0.9384 H   0  0  0  0  0  0  0  0  0  0  0  0
   -3.4907   -0.3801    2.6218 C   0  0  0  0  0  0  0  0  0  0  0  0
   -3.8018   -0.1105    1.6908 H   0  0  0  0  0  0  0  0  0  0  0  0
   -3.1115    0.4589    3.0561 H   0  0  0  0  0  0  0  0  0  0  0  0
   -4.3534   -0.7159    3.1972 H   0  0  0  0  0  0  0  0  0  0  0  0
   -2.2638   -1.6702    2.5396 S   0  0  0  0  0  0  0  0  0  0  0  0
   -3.1572   -2.9815    1.6998 C   0  0  0  0  0  0  0  0  0  0  0  0
   -4.1207   -2.7260    1.6124 H   0  0  0  0  0  0  0  0  0  0  0  0
   -2.7662   -3.1227    0.7898 H   0  0  0  0  0  0  0  0  0  0  0  0
   -3.0835   -3.8274    2.2291 H   0  0  0  0  0  0  0  0  0  0  0  0
  1  5  1  0
  5  8  1  0
  1  2  1  0
  1  3  1  0
  1  4  1  0
  5  6  1  0
  5  7  1  0
  8  9  1  0
  8 10  1  0
  8 11  1  0
 12 16  1  0
 16 17  1  0
 12 13  1  0
 12 14  1  0
 12 15  1  0
 17 18  1  0
 17 19  1  0
 17 20  1  0
M  CHG  1   8   1
M  END
>  <PDB_ID>  (1085) 
pdb4h73

>  <RESIDUE_NAME>  (1085) 
LYS   MET

>  <FRAG_NAME>  (1085) 
ETAM   MSM

>  <FRAG_ATOM_NUM>  (1085) 
fragi: 11  fragj: 9

>  <atom.prop.CHAIN_ID>  (1085) 
A A A A A A A A A A A Z Z Z Z Z Z Z Z Z

>  <atom.prop.IS_HEAVY_ATOM>  (1085) 
1 0 0 0 1 0 0 1 0 0 0 1 0 0 0 1 1 0 0 0

>  <DIFUSE_FUNC_ATOM>  (1085) 
n/a

>  <FINAL_SINGLE_POINT_ENERGY>  (1085) 
0

>  <NONCOV_INTER_ENERGY_QM>  (1085) 
0

>  <FF_Energy>  (1085) 
-3.62

>  <QM_Energy>  (1085) 
-8.92

>  <source>  (1085) 
ETAM_MSM

>  <Index>  (1085) 
6607

$$$$
ETAM-pdb3kq5-A-LYS-17:MSM-pdb3kq5-A-MET-20
     RDKit          3D

 20 18  0  0  0  0  0  0  0  0999 V2000
    1.2331    0.8724    0.0000 C   0  0  0  0  0  0  0  0  0  0  0  0
    1.2139    1.4533    0.8172 H   0  0  0  0  0  0  0  0  0  0  0  0
    1.2136    1.4536   -0.8169 H   0  0  0  0  0  0  0  0  0  0  0  0
    2.1589    0.2970    0.0004 H   0  0  0  0  0  0  0  0  0  0  0  0
    0.0000    0.0000    0.0000 C   0  0  0  0  0  0  0  0  0  0  0  0
    0.0075   -0.5792   -0.8161 H   0  0  0  0  0  0  0  0  0  0  0  0
    0.0066   -0.5795    0.8167 H   0  0  0  0  0  0  0  0  0  0  0  0
   -1.2331    0.8273   -0.0000 N   0  0  0  0  0  4  0  0  0  0  0  0
   -1.3482    1.2544    0.8967 H   0  0  0  0  0  0  0  0  0  0  0  0
   -1.1578    1.5380   -0.7001 H   0  0  0  0  0  0  0  0  0  0  0  0
   -2.0239    0.2466   -0.1963 H   0  0  0  0  0  0  0  0  0  0  0  0
    3.4874    4.7997    3.1840 C   0  0  0  0  0  0  0  0  0  0  0  0
    3.2319    5.3287    4.0627 H   0  0  0  0  0  0  0  0  0  0  0  0
    3.7315    5.5947    2.5312 H   0  0  0  0  0  0  0  0  0  0  0  0
    4.4132    4.2637    3.3930 H   0  0  0  0  0  0  0  0  0  0  0  0
    2.0860    3.8804    2.5675 S   0  0  0  0  0  0  0  0  0  0  0  0
    2.6998    2.2431    2.2913 C   0  0  0  0  0  0  0  0  0  0  0  0
    2.7069    2.0371    1.3080 H   0  0  0  0  0  0  0  0  0  0  0  0
    3.6359    2.1602    2.6453 H   0  0  0  0  0  0  0  0  0  0  0  0
    2.1163    1.5714    2.7580 H   0  0  0  0  0  0  0  0  0  0  0  0
  1  5  1  0
  5  8  1  0
  1  2  1  0
  1  3  1  0
  1  4  1  0
  5  6  1  0
  5  7  1  0
  8  9  1  0
  8 10  1  0
  8 11  1  0
 12 16  1  0
 16 17  1  0
 12 13  1  0
 12 14  1  0
 12 15  1  0
 17 18  1  0
 17 19  1  0
 17 20  1  0
M  CHG  1   8   1
M  END
>  <PDB_ID>  (1086) 
pdb3kq5

>  <RESIDUE_NAME>  (1086) 
LYS   MET

>  <FRAG_NAME>  (1086) 
ETAM   MSM

>  <FRAG_ATOM_NUM>  (1086) 
fragi: 11  fragj: 9

>  <atom.prop.CHAIN_ID>  (1086) 
A A A A A A A A A A A Z Z Z Z Z Z Z Z Z

>  <atom.prop.IS_HEAVY_ATOM>  (1086) 
1 0 0 0 1 0 0 1 0 0 0 1 0 0 0 1 1 0 0 0

>  <DIFUSE_FUNC_ATOM>  (1086) 
n/a

>  <FINAL_SINGLE_POINT_ENERGY>  (1086) 
0

>  <NONCOV_INTER_ENERGY_QM>  (1086) 
0

>  <FF_Energy>  (1086) 
14.51

>  <QM_Energy>  (1086) 
3.09

>  <source>  (1086) 
ETAM_MSM

>  <Index>  (1086) 
6608

$$$$
ETAM-pdb3kox-A-LYS-735:MSM-pdb3kox-A-MET-739
     RDKit          3D

 20 18  0  0  0  0  0  0  0  0999 V2000
    1.2821    0.8539   -0.0000 C   0  0  0  0  0  0  0  0  0  0  0  0
    1.9218    0.4547   -0.6508 H   0  0  0  0  0  0  0  0  0  0  0  0
    1.6697    0.8333    0.9174 H   0  0  0  0  0  0  0  0  0  0  0  0
    1.0960    1.8904   -0.2812 H   0  0  0  0  0  0  0  0  0  0  0  0
    0.0000    0.0000    0.0000 C   0  0  0  0  0  0  0  0  0  0  0  0
    0.0224   -0.6057   -0.8158 H   0  0  0  0  0  0  0  0  0  0  0  0
    0.0226   -0.6054    0.8161 H   0  0  0  0  0  0  0  0  0  0  0  0
   -1.2821    0.7671    0.0000 N   0  0  0  0  0  4  0  0  0  0  0  0
   -1.9805    0.2398    0.4806 H   0  0  0  0  0  0  0  0  0  0  0  0
   -1.1425    1.6416    0.4615 H   0  0  0  0  0  0  0  0  0  0  0  0
   -1.5704    0.9263   -0.9429 H   0  0  0  0  0  0  0  0  0  0  0  0
   -2.7957   -0.0313   -3.6542 C   0  0  0  0  0  0  0  0  0  0  0  0
   -3.5799   -0.6798   -3.4709 H   0  0  0  0  0  0  0  0  0  0  0  0
   -1.9501   -0.5924   -3.4559 H   0  0  0  0  0  0  0  0  0  0  0  0
   -2.7995    0.2082   -4.7176 H   0  0  0  0  0  0  0  0  0  0  0  0
   -2.8835    1.4070   -2.5201 S   0  0  0  0  0  0  0  0  0  0  0  0
   -3.7610    2.6514   -3.4863 C   0  0  0  0  0  0  0  0  0  0  0  0
   -4.7398    2.5872   -3.2949 H   0  0  0  0  0  0  0  0  0  0  0  0
   -3.4276    3.5588   -3.2354 H   0  0  0  0  0  0  0  0  0  0  0  0
   -3.5968    2.4895   -4.4584 H   0  0  0  0  0  0  0  0  0  0  0  0
  1  5  1  0
  5  8  1  0
  1  2  1  0
  1  3  1  0
  1  4  1  0
  5  6  1  0
  5  7  1  0
  8  9  1  0
  8 10  1  0
  8 11  1  0
 12 16  1  0
 16 17  1  0
 12 13  1  0
 12 14  1  0
 12 15  1  0
 17 18  1  0
 17 19  1  0
 17 20  1  0
M  CHG  1   8   1
M  END
>  <PDB_ID>  (1087) 
pdb3kox

>  <RESIDUE_NAME>  (1087) 
LYS   MET

>  <FRAG_NAME>  (1087) 
ETAM   MSM

>  <FRAG_ATOM_NUM>  (1087) 
fragi: 11  fragj: 9

>  <atom.prop.CHAIN_ID>  (1087) 
A A A A A A A A A A A Z Z Z Z Z Z Z Z Z

>  <atom.prop.IS_HEAVY_ATOM>  (1087) 
1 0 0 0 1 0 0 1 0 0 0 1 0 0 0 1 1 0 0 0

>  <DIFUSE_FUNC_ATOM>  (1087) 
n/a

>  <FINAL_SINGLE_POINT_ENERGY>  (1087) 
0

>  <NONCOV_INTER_ENERGY_QM>  (1087) 
0

>  <FF_Energy>  (1087) 
-4.55

>  <QM_Energy>  (1087) 
-13.73

>  <source>  (1087) 
ETAM_MSM

>  <Index>  (1087) 
6610

$$$$
ETAM-pdb4hgn-C-LYS-53:MSM-pdb4hgn-C-MET-166
     RDKit          3D

 20 18  0  0  0  0  0  0  0  0999 V2000
    1.2601    0.8598    0.0000 C   0  0  0  0  0  0  0  0  0  0  0  0
    1.2653    1.4189    0.8191 H   0  0  0  0  0  0  0  0  0  0  0  0
    1.2590    1.4267   -0.8142 H   0  0  0  0  0  0  0  0  0  0  0  0
    2.1594    0.2440   -0.0052 H   0  0  0  0  0  0  0  0  0  0  0  0
    0.0000    0.0000    0.0000 C   0  0  0  0  0  0  0  0  0  0  0  0
    0.0064   -0.5882   -0.8160 H   0  0  0  0  0  0  0  0  0  0  0  0
    0.0062   -0.5883    0.8167 H   0  0  0  0  0  0  0  0  0  0  0  0
   -1.2601    0.8149   -0.0000 N   0  0  0  0  0  4  0  0  0  0  0  0
   -2.0232    0.2350   -0.2767 H   0  0  0  0  0  0  0  0  0  0  0  0
   -1.4189    1.1686    0.9184 H   0  0  0  0  0  0  0  0  0  0  0  0
   -1.1578    1.5716   -0.6426 H   0  0  0  0  0  0  0  0  0  0  0  0
   -4.2161   -2.4581    0.5821 C   0  0  0  0  0  0  0  0  0  0  0  0
   -4.6961   -3.1828    0.0320 H   0  0  0  0  0  0  0  0  0  0  0  0
   -4.9483   -2.0419    1.1727 H   0  0  0  0  0  0  0  0  0  0  0  0
   -3.4891   -2.9471    1.2305 H   0  0  0  0  0  0  0  0  0  0  0  0
   -3.4939   -1.2010   -0.5152 S   0  0  0  0  0  0  0  0  0  0  0  0
   -3.0756   -2.1936   -1.9560 C   0  0  0  0  0  0  0  0  0  0  0  0
   -3.9010   -2.3596   -2.4951 H   0  0  0  0  0  0  0  0  0  0  0  0
   -2.4041   -1.7046   -2.5130 H   0  0  0  0  0  0  0  0  0  0  0  0
   -2.6899   -3.0659   -1.6571 H   0  0  0  0  0  0  0  0  0  0  0  0
  1  5  1  0
  5  8  1  0
  1  2  1  0
  1  3  1  0
  1  4  1  0
  5  6  1  0
  5  7  1  0
  8  9  1  0
  8 10  1  0
  8 11  1  0
 12 16  1  0
 16 17  1  0
 12 13  1  0
 12 14  1  0
 12 15  1  0
 17 18  1  0
 17 19  1  0
 17 20  1  0
M  CHG  1   8   1
M  END
>  <PDB_ID>  (1088) 
pdb4hgn

>  <RESIDUE_NAME>  (1088) 
LYS   MET

>  <FRAG_NAME>  (1088) 
ETAM   MSM

>  <FRAG_ATOM_NUM>  (1088) 
fragi: 11  fragj: 9

>  <atom.prop.CHAIN_ID>  (1088) 
A A A A A A A A A A A Z Z Z Z Z Z Z Z Z

>  <atom.prop.IS_HEAVY_ATOM>  (1088) 
1 0 0 0 1 0 0 1 0 0 0 1 0 0 0 1 1 0 0 0

>  <DIFUSE_FUNC_ATOM>  (1088) 
n/a

>  <FINAL_SINGLE_POINT_ENERGY>  (1088) 
0

>  <NONCOV_INTER_ENERGY_QM>  (1088) 
0

>  <FF_Energy>  (1088) 
-4.65

>  <QM_Energy>  (1088) 
-15.16

>  <source>  (1088) 
ETAM_MSM

>  <Index>  (1088) 
6611

$$$$
ETAM-pdb3kra-B-LYS-221:MSM-pdb3kra-B-MET-218
     RDKit          3D

 20 18  0  0  0  0  0  0  0  0999 V2000
    1.2940    0.8625   -0.0000 C   0  0  0  0  0  0  0  0  0  0  0  0
    1.3241    1.3700    0.8428 H   0  0  0  0  0  0  0  0  0  0  0  0
    1.2701    1.4514   -0.7875 H   0  0  0  0  0  0  0  0  0  0  0  0
    2.1758    0.2247   -0.0606 H   0  0  0  0  0  0  0  0  0  0  0  0
    0.0000    0.0000    0.0000 C   0  0  0  0  0  0  0  0  0  0  0  0
    0.0308   -0.6071   -0.8162 H   0  0  0  0  0  0  0  0  0  0  0  0
    0.0313   -0.6071    0.8166 H   0  0  0  0  0  0  0  0  0  0  0  0
   -1.2940    0.7527   -0.0000 N   0  0  0  0  0  4  0  0  0  0  0  0
   -1.3284    1.3455    0.8026 H   0  0  0  0  0  0  0  0  0  0  0  0
   -1.3522    1.3043   -0.8297 H   0  0  0  0  0  0  0  0  0  0  0  0
   -2.0510    0.1024    0.0279 H   0  0  0  0  0  0  0  0  0  0  0  0
   -0.8468    0.2310    3.0198 C   0  0  0  0  0  0  0  0  0  0  0  0
   -0.6676    0.9045    2.2440 H   0  0  0  0  0  0  0  0  0  0  0  0
   -1.0088   -0.6685    2.5176 H   0  0  0  0  0  0  0  0  0  0  0  0
    0.0699    0.1338    3.6015 H   0  0  0  0  0  0  0  0  0  0  0  0
   -2.3320    0.7129    3.9396 S   0  0  0  0  0  0  0  0  0  0  0  0
   -3.6709    0.1768    2.7338 C   0  0  0  0  0  0  0  0  0  0  0  0
   -3.2173   -0.2264    1.9547 H   0  0  0  0  0  0  0  0  0  0  0  0
   -4.2405   -0.4784    3.2030 H   0  0  0  0  0  0  0  0  0  0  0  0
   -4.1772    0.9863    2.4818 H   0  0  0  0  0  0  0  0  0  0  0  0
  1  5  1  0
  5  8  1  0
  1  2  1  0
  1  3  1  0
  1  4  1  0
  5  6  1  0
  5  7  1  0
  8  9  1  0
  8 10  1  0
  8 11  1  0
 12 16  1  0
 16 17  1  0
 12 13  1  0
 12 14  1  0
 12 15  1  0
 17 18  1  0
 17 19  1  0
 17 20  1  0
M  CHG  1   8   1
M  END
>  <PDB_ID>  (1089) 
pdb3kra

>  <RESIDUE_NAME>  (1089) 
LYS   MET

>  <FRAG_NAME>  (1089) 
ETAM   MSM

>  <FRAG_ATOM_NUM>  (1089) 
fragi: 11  fragj: 9

>  <atom.prop.CHAIN_ID>  (1089) 
A A A A A A A A A A A Z Z Z Z Z Z Z Z Z

>  <atom.prop.IS_HEAVY_ATOM>  (1089) 
1 0 0 0 1 0 0 1 0 0 0 1 0 0 0 1 1 0 0 0

>  <DIFUSE_FUNC_ATOM>  (1089) 
n/a

>  <FINAL_SINGLE_POINT_ENERGY>  (1089) 
0

>  <NONCOV_INTER_ENERGY_QM>  (1089) 
0

>  <FF_Energy>  (1089) 
8.55

>  <QM_Energy>  (1089) 
3.14

>  <source>  (1089) 
ETAM_MSM

>  <Index>  (1089) 
6614

$$$$
ETAM-pdb4hhr-A-LYS-141:MSM-pdb4hhr-A-MET-454
     RDKit          3D

 20 18  0  0  0  0  0  0  0  0999 V2000
    1.2391    0.9024   -0.0000 C   0  0  0  0  0  0  0  0  0  0  0  0
    1.2561    1.4073    0.8515 H   0  0  0  0  0  0  0  0  0  0  0  0
    1.1799    1.5127   -0.7766 H   0  0  0  0  0  0  0  0  0  0  0  0
    2.1477    0.3057   -0.0810 H   0  0  0  0  0  0  0  0  0  0  0  0
    0.0000    0.0000    0.0000 C   0  0  0  0  0  0  0  0  0  0  0  0
    0.0205   -0.5704   -0.8164 H   0  0  0  0  0  0  0  0  0  0  0  0
    0.0191   -0.5705    0.8163 H   0  0  0  0  0  0  0  0  0  0  0  0
   -1.2391    0.8248   -0.0000 N   0  0  0  0  0  4  0  0  0  0  0  0
   -2.0276    0.2384    0.1837 H   0  0  0  0  0  0  0  0  0  0  0  0
   -1.1702    1.5256    0.7098 H   0  0  0  0  0  0  0  0  0  0  0  0
   -1.3462    1.2611   -0.8928 H   0  0  0  0  0  0  0  0  0  0  0  0
    0.5696   -0.1962    4.1063 C   0  0  0  0  0  0  0  0  0  0  0  0
    0.4353   -1.0158    3.5369 H   0  0  0  0  0  0  0  0  0  0  0  0
    0.2842   -0.4155    5.0468 H   0  0  0  0  0  0  0  0  0  0  0  0
    1.6326    0.0445    4.1161 H   0  0  0  0  0  0  0  0  0  0  0  0
   -0.3335    1.2054    3.4587 S   0  0  0  0  0  0  0  0  0  0  0  0
   -1.9369    0.8470    4.1724 C   0  0  0  0  0  0  0  0  0  0  0  0
   -2.5541    0.5120    3.4592 H   0  0  0  0  0  0  0  0  0  0  0  0
   -1.8398    0.1476    4.8825 H   0  0  0  0  0  0  0  0  0  0  0  0
   -2.3181    1.6792    4.5769 H   0  0  0  0  0  0  0  0  0  0  0  0
  1  5  1  0
  5  8  1  0
  1  2  1  0
  1  3  1  0
  1  4  1  0
  5  6  1  0
  5  7  1  0
  8  9  1  0
  8 10  1  0
  8 11  1  0
 12 16  1  0
 16 17  1  0
 12 13  1  0
 12 14  1  0
 12 15  1  0
 17 18  1  0
 17 19  1  0
 17 20  1  0
M  CHG  1   8   1
M  END
>  <PDB_ID>  (1090) 
pdb4hhr

>  <RESIDUE_NAME>  (1090) 
LYS   MET

>  <FRAG_NAME>  (1090) 
ETAM   MSM

>  <FRAG_ATOM_NUM>  (1090) 
fragi: 11  fragj: 9

>  <atom.prop.CHAIN_ID>  (1090) 
A A A A A A A A A A A Z Z Z Z Z Z Z Z Z

>  <atom.prop.IS_HEAVY_ATOM>  (1090) 
1 0 0 0 1 0 0 1 0 0 0 1 0 0 0 1 1 0 0 0

>  <DIFUSE_FUNC_ATOM>  (1090) 
n/a

>  <FINAL_SINGLE_POINT_ENERGY>  (1090) 
0

>  <NONCOV_INTER_ENERGY_QM>  (1090) 
0

>  <FF_Energy>  (1090) 
-5.1

>  <QM_Energy>  (1090) 
-12.46

>  <source>  (1090) 
ETAM_MSM

>  <Index>  (1090) 
6618

$$$$
ETAM-pdb4how-A-LYS-233:MSM-pdb4how-A-MET-120
     RDKit          3D

 20 18  0  0  0  0  0  0  0  0999 V2000
    1.2093    0.8488    0.0000 C   0  0  0  0  0  0  0  0  0  0  0  0
    2.0116    0.3083    0.2514 H   0  0  0  0  0  0  0  0  0  0  0  0
    1.1014    1.6056    0.6452 H   0  0  0  0  0  0  0  0  0  0  0  0
    1.4122    1.2869   -0.9773 H   0  0  0  0  0  0  0  0  0  0  0  0
    0.0000    0.0000    0.0000 C   0  0  0  0  0  0  0  0  0  0  0  0
   -0.0190   -0.5731   -0.8166 H   0  0  0  0  0  0  0  0  0  0  0  0
   -0.0189   -0.5732    0.8166 H   0  0  0  0  0  0  0  0  0  0  0  0
   -1.2093    0.8687    0.0000 N   0  0  0  0  0  4  0  0  0  0  0  0
   -2.0266    0.2994    0.0885 H   0  0  0  0  0  0  0  0  0  0  0  0
   -1.1593    1.5050    0.7687 H   0  0  0  0  0  0  0  0  0  0  0  0
   -1.2491    1.3815   -0.8569 H   0  0  0  0  0  0  0  0  0  0  0  0
   -3.6158   -0.6809    2.7557 C   0  0  0  0  0  0  0  0  0  0  0  0
   -3.9014   -1.2409    1.9263 H   0  0  0  0  0  0  0  0  0  0  0  0
   -3.8222    0.2972    2.4680 H   0  0  0  0  0  0  0  0  0  0  0  0
   -4.2863   -0.9362    3.5763 H   0  0  0  0  0  0  0  0  0  0  0  0
   -1.8264   -0.8824    3.0693 S   0  0  0  0  0  0  0  0  0  0  0  0
   -1.6480   -2.6272    3.1476 C   0  0  0  0  0  0  0  0  0  0  0  0
   -0.6737   -2.8816    3.1737 H   0  0  0  0  0  0  0  0  0  0  0  0
   -2.0937   -2.9918    3.9739 H   0  0  0  0  0  0  0  0  0  0  0  0
   -2.0686   -3.0624    2.3420 H   0  0  0  0  0  0  0  0  0  0  0  0
  1  5  1  0
  5  8  1  0
  1  2  1  0
  1  3  1  0
  1  4  1  0
  5  6  1  0
  5  7  1  0
  8  9  1  0
  8 10  1  0
  8 11  1  0
 12 16  1  0
 16 17  1  0
 12 13  1  0
 12 14  1  0
 12 15  1  0
 17 18  1  0
 17 19  1  0
 17 20  1  0
M  CHG  1   8   1
M  END
>  <PDB_ID>  (1091) 
pdb4how

>  <RESIDUE_NAME>  (1091) 
LYS   MET

>  <FRAG_NAME>  (1091) 
ETAM   MSM

>  <FRAG_ATOM_NUM>  (1091) 
fragi: 11  fragj: 9

>  <atom.prop.CHAIN_ID>  (1091) 
A A A A A A A A A A A Z Z Z Z Z Z Z Z Z

>  <atom.prop.IS_HEAVY_ATOM>  (1091) 
1 0 0 0 1 0 0 1 0 0 0 1 0 0 0 1 1 0 0 0

>  <DIFUSE_FUNC_ATOM>  (1091) 
n/a

>  <FINAL_SINGLE_POINT_ENERGY>  (1091) 
0

>  <NONCOV_INTER_ENERGY_QM>  (1091) 
0

>  <FF_Energy>  (1091) 
-4.38

>  <QM_Energy>  (1091) 
-10.85

>  <source>  (1091) 
ETAM_MSM

>  <Index>  (1091) 
6640

$$$$
ETAM-pdb4hsn-A-LYS-188:MSM-pdb4hsn-A-MET-302
     RDKit          3D

 20 18  0  0  0  0  0  0  0  0999 V2000
    1.2205    0.9462   -0.0000 C   0  0  0  0  0  0  0  0  0  0  0  0
    1.1905    1.4721    0.8290 H   0  0  0  0  0  0  0  0  0  0  0  0
    1.1617    1.5087   -0.8031 H   0  0  0  0  0  0  0  0  0  0  0  0
    2.1236    0.3365   -0.0289 H   0  0  0  0  0  0  0  0  0  0  0  0
    0.0000    0.0000    0.0000 C   0  0  0  0  0  0  0  0  0  0  0  0
    0.0209   -0.5417   -0.8163 H   0  0  0  0  0  0  0  0  0  0  0  0
    0.0203   -0.5415    0.8162 H   0  0  0  0  0  0  0  0  0  0  0  0
   -1.2205    0.8673   -0.0000 N   0  0  0  0  0  4  0  0  0  0  0  0
   -1.3834    1.2029    0.9265 H   0  0  0  0  0  0  0  0  0  0  0  0
   -1.0744    1.6374   -0.6189 H   0  0  0  0  0  0  0  0  0  0  0  0
   -2.0037    0.3300   -0.3072 H   0  0  0  0  0  0  0  0  0  0  0  0
   -4.4052   -3.1601    1.3616 C   0  0  0  0  0  0  0  0  0  0  0  0
   -5.1166   -2.7631    0.7261 H   0  0  0  0  0  0  0  0  0  0  0  0
   -4.9035   -3.2858    2.2582 H   0  0  0  0  0  0  0  0  0  0  0  0
   -4.0797   -4.1296    0.9846 H   0  0  0  0  0  0  0  0  0  0  0  0
   -3.0446   -1.9007    1.6021 S   0  0  0  0  0  0  0  0  0  0  0  0
   -1.7908   -2.9116    2.3322 C   0  0  0  0  0  0  0  0  0  0  0  0
   -1.6756   -2.6750    3.3018 H   0  0  0  0  0  0  0  0  0  0  0  0
   -2.0441   -3.8820    2.2647 H   0  0  0  0  0  0  0  0  0  0  0  0
   -0.9141   -2.7737    1.8598 H   0  0  0  0  0  0  0  0  0  0  0  0
  1  5  1  0
  5  8  1  0
  1  2  1  0
  1  3  1  0
  1  4  1  0
  5  6  1  0
  5  7  1  0
  8  9  1  0
  8 10  1  0
  8 11  1  0
 12 16  1  0
 16 17  1  0
 12 13  1  0
 12 14  1  0
 12 15  1  0
 17 18  1  0
 17 19  1  0
 17 20  1  0
M  CHG  1   8   1
M  END
>  <PDB_ID>  (1092) 
pdb4hsn

>  <RESIDUE_NAME>  (1092) 
LYS   MET

>  <FRAG_NAME>  (1092) 
ETAM   MSM

>  <FRAG_ATOM_NUM>  (1092) 
fragi: 11  fragj: 9

>  <atom.prop.CHAIN_ID>  (1092) 
A A A A A A A A A A A Z Z Z Z Z Z Z Z Z

>  <atom.prop.IS_HEAVY_ATOM>  (1092) 
1 0 0 0 1 0 0 1 0 0 0 1 0 0 0 1 1 0 0 0

>  <DIFUSE_FUNC_ATOM>  (1092) 
n/a

>  <FINAL_SINGLE_POINT_ENERGY>  (1092) 
0

>  <NONCOV_INTER_ENERGY_QM>  (1092) 
0

>  <FF_Energy>  (1092) 
-5.13

>  <QM_Energy>  (1092) 
-11.19

>  <source>  (1092) 
ETAM_MSM

>  <Index>  (1092) 
6657

$$$$
ETAM-pdb3l2d-A-LYS-377:MSM-pdb3l2d-A-MET-387
     RDKit          3D

 20 18  0  0  0  0  0  0  0  0999 V2000
    1.2649    0.8800    0.0000 C   0  0  0  0  0  0  0  0  0  0  0  0
    1.7394    0.7374    0.8526 H   0  0  0  0  0  0  0  0  0  0  0  0
    0.9876    1.8194   -0.1123 H   0  0  0  0  0  0  0  0  0  0  0  0
    1.9169    0.5957   -0.8259 H   0  0  0  0  0  0  0  0  0  0  0  0
    0.0000    0.0000    0.0000 C   0  0  0  0  0  0  0  0  0  0  0  0
    0.0175   -0.5842   -0.8164 H   0  0  0  0  0  0  0  0  0  0  0  0
    0.0179   -0.5846    0.8166 H   0  0  0  0  0  0  0  0  0  0  0  0
   -1.2649    0.8059   -0.0000 N   0  0  0  0  0  4  0  0  0  0  0  0
   -1.4442    1.1302    0.9264 H   0  0  0  0  0  0  0  0  0  0  0  0
   -1.1565    1.5835   -0.6158 H   0  0  0  0  0  0  0  0  0  0  0  0
   -2.0179    0.2300   -0.3100 H   0  0  0  0  0  0  0  0  0  0  0  0
   -1.3729    2.2345   -4.3607 C   0  0  0  0  0  0  0  0  0  0  0  0
   -2.2160    1.5889   -4.3613 H   0  0  0  0  0  0  0  0  0  0  0  0
   -0.6119    1.5570   -4.6603 H   0  0  0  0  0  0  0  0  0  0  0  0
   -1.5120    2.9417   -5.1785 H   0  0  0  0  0  0  0  0  0  0  0  0
   -1.0487    2.8352   -2.6870 S   0  0  0  0  0  0  0  0  0  0  0  0
   -0.5840    4.5533   -2.8759 C   0  0  0  0  0  0  0  0  0  0  0  0
    0.4036    4.6514   -2.7422 H   0  0  0  0  0  0  0  0  0  0  0  0
   -0.8265    4.8680   -3.7948 H   0  0  0  0  0  0  0  0  0  0  0  0
   -1.0672    5.1088   -2.1970 H   0  0  0  0  0  0  0  0  0  0  0  0
  1  5  1  0
  5  8  1  0
  1  2  1  0
  1  3  1  0
  1  4  1  0
  5  6  1  0
  5  7  1  0
  8  9  1  0
  8 10  1  0
  8 11  1  0
 12 16  1  0
 16 17  1  0
 12 13  1  0
 12 14  1  0
 12 15  1  0
 17 18  1  0
 17 19  1  0
 17 20  1  0
M  CHG  1   8   1
M  END
>  <PDB_ID>  (1093) 
pdb3l2d

>  <RESIDUE_NAME>  (1093) 
LYS   MET

>  <FRAG_NAME>  (1093) 
ETAM   MSM

>  <FRAG_ATOM_NUM>  (1093) 
fragi: 11  fragj: 9

>  <atom.prop.CHAIN_ID>  (1093) 
A A A A A A A A A A A Z Z Z Z Z Z Z Z Z

>  <atom.prop.IS_HEAVY_ATOM>  (1093) 
1 0 0 0 1 0 0 1 0 0 0 1 0 0 0 1 1 0 0 0

>  <DIFUSE_FUNC_ATOM>  (1093) 
n/a

>  <FINAL_SINGLE_POINT_ENERGY>  (1093) 
0

>  <NONCOV_INTER_ENERGY_QM>  (1093) 
0

>  <FF_Energy>  (1093) 
-6.12

>  <QM_Energy>  (1093) 
-15.04

>  <source>  (1093) 
ETAM_MSM

>  <Index>  (1093) 
6659

$$$$
ETAM-pdb4hwc-C-LYS-184:MSM-pdb4hwc-C-MET-180
     RDKit          3D

 20 18  0  0  0  0  0  0  0  0999 V2000
    1.2548    0.8661    0.0000 C   0  0  0  0  0  0  0  0  0  0  0  0
    1.2890    1.3713    0.8540 H   0  0  0  0  0  0  0  0  0  0  0  0
    1.2088    1.4868   -0.7732 H   0  0  0  0  0  0  0  0  0  0  0  0
    2.1522    0.2536   -0.0866 H   0  0  0  0  0  0  0  0  0  0  0  0
    0.0000    0.0000    0.0000 C   0  0  0  0  0  0  0  0  0  0  0  0
    0.0108   -0.5874   -0.8161 H   0  0  0  0  0  0  0  0  0  0  0  0
    0.0109   -0.5871    0.8159 H   0  0  0  0  0  0  0  0  0  0  0  0
   -1.2548    0.8109    0.0000 N   0  0  0  0  0  4  0  0  0  0  0  0
   -1.0688    1.7039   -0.4065 H   0  0  0  0  0  0  0  0  0  0  0  0
   -1.9531    0.3364   -0.5332 H   0  0  0  0  0  0  0  0  0  0  0  0
   -1.5705    0.9274    0.9400 H   0  0  0  0  0  0  0  0  0  0  0  0
    0.4355   -0.5487    3.6774 C   0  0  0  0  0  0  0  0  0  0  0  0
    0.9247    0.2356    3.2208 H   0  0  0  0  0  0  0  0  0  0  0  0
    0.6119   -1.3603    3.0667 H   0  0  0  0  0  0  0  0  0  0  0  0
    0.9157   -0.7347    4.6381 H   0  0  0  0  0  0  0  0  0  0  0  0
   -1.3234   -0.2170    3.8081 S   0  0  0  0  0  0  0  0  0  0  0  0
   -1.9766   -1.8689    3.6258 C   0  0  0  0  0  0  0  0  0  0  0  0
   -1.3709   -2.5242    4.0801 H   0  0  0  0  0  0  0  0  0  0  0  0
   -2.8879   -1.9202    4.0401 H   0  0  0  0  0  0  0  0  0  0  0  0
   -2.0429   -2.1011    2.6531 H   0  0  0  0  0  0  0  0  0  0  0  0
  1  5  1  0
  5  8  1  0
  1  2  1  0
  1  3  1  0
  1  4  1  0
  5  6  1  0
  5  7  1  0
  8  9  1  0
  8 10  1  0
  8 11  1  0
 12 16  1  0
 16 17  1  0
 12 13  1  0
 12 14  1  0
 12 15  1  0
 17 18  1  0
 17 19  1  0
 17 20  1  0
M  CHG  1   8   1
M  END
>  <PDB_ID>  (1094) 
pdb4hwc

>  <RESIDUE_NAME>  (1094) 
LYS   MET

>  <FRAG_NAME>  (1094) 
ETAM   MSM

>  <FRAG_ATOM_NUM>  (1094) 
fragi: 11  fragj: 9

>  <atom.prop.CHAIN_ID>  (1094) 
A A A A A A A A A A A Z Z Z Z Z Z Z Z Z

>  <atom.prop.IS_HEAVY_ATOM>  (1094) 
1 0 0 0 1 0 0 1 0 0 0 1 0 0 0 1 1 0 0 0

>  <DIFUSE_FUNC_ATOM>  (1094) 
n/a

>  <FINAL_SINGLE_POINT_ENERGY>  (1094) 
0

>  <NONCOV_INTER_ENERGY_QM>  (1094) 
0

>  <FF_Energy>  (1094) 
-3.8

>  <QM_Energy>  (1094) 
-10.27

>  <source>  (1094) 
ETAM_MSM

>  <Index>  (1094) 
6667

$$$$
ETAM-pdb4hv4-B-LYS-373:MSM-pdb4hv4-B-MET-347
     RDKit          3D

 20 18  0  0  0  0  0  0  0  0999 V2000
    1.2450    0.9042   -0.0000 C   0  0  0  0  0  0  0  0  0  0  0  0
    1.2076    1.4767   -0.8200 H   0  0  0  0  0  0  0  0  0  0  0  0
    2.0511    0.3138   -0.0432 H   0  0  0  0  0  0  0  0  0  0  0  0
    1.3083    1.5406    0.8826 H   0  0  0  0  0  0  0  0  0  0  0  0
    0.0000    0.0000    0.0000 C   0  0  0  0  0  0  0  0  0  0  0  0
    0.0399   -0.5853   -0.8157 H   0  0  0  0  0  0  0  0  0  0  0  0
    0.0396   -0.5858    0.8165 H   0  0  0  0  0  0  0  0  0  0  0  0
   -1.2450    0.7762    0.0000 N   0  0  0  0  0  4  0  0  0  0  0  0
   -1.0717    1.7007    0.3479 H   0  0  0  0  0  0  0  0  0  0  0  0
   -1.6080    0.8407   -0.9330 H   0  0  0  0  0  0  0  0  0  0  0  0
   -1.9263    0.3297    0.5851 H   0  0  0  0  0  0  0  0  0  0  0  0
   -3.1500    2.8553   -2.4085 C   0  0  0  0  0  0  0  0  0  0  0  0
   -4.0707    2.5342   -2.6740 H   0  0  0  0  0  0  0  0  0  0  0  0
   -2.4886    2.1303   -2.6506 H   0  0  0  0  0  0  0  0  0  0  0  0
   -2.9106    3.7646   -2.9599 H   0  0  0  0  0  0  0  0  0  0  0  0
   -3.0925    3.1865   -0.6133 S   0  0  0  0  0  0  0  0  0  0  0  0
   -4.1767    4.5990   -0.4775 C   0  0  0  0  0  0  0  0  0  0  0  0
   -5.0281    4.4208   -0.9755 H   0  0  0  0  0  0  0  0  0  0  0  0
   -4.3884    4.7721    0.4866 H   0  0  0  0  0  0  0  0  0  0  0  0
   -3.7299    5.4076   -0.8664 H   0  0  0  0  0  0  0  0  0  0  0  0
  1  5  1  0
  5  8  1  0
  1  2  1  0
  1  3  1  0
  1  4  1  0
  5  6  1  0
  5  7  1  0
  8  9  1  0
  8 10  1  0
  8 11  1  0
 12 16  1  0
 16 17  1  0
 12 13  1  0
 12 14  1  0
 12 15  1  0
 17 18  1  0
 17 19  1  0
 17 20  1  0
M  CHG  1   8   1
M  END
>  <PDB_ID>  (1095) 
pdb4hv4

>  <RESIDUE_NAME>  (1095) 
LYS   MET

>  <FRAG_NAME>  (1095) 
ETAM   MSM

>  <FRAG_ATOM_NUM>  (1095) 
fragi: 11  fragj: 9

>  <atom.prop.CHAIN_ID>  (1095) 
A A A A A A A A A A A Z Z Z Z Z Z Z Z Z

>  <atom.prop.IS_HEAVY_ATOM>  (1095) 
1 0 0 0 1 0 0 1 0 0 0 1 0 0 0 1 1 0 0 0

>  <DIFUSE_FUNC_ATOM>  (1095) 
n/a

>  <FINAL_SINGLE_POINT_ENERGY>  (1095) 
0

>  <NONCOV_INTER_ENERGY_QM>  (1095) 
0

>  <FF_Energy>  (1095) 
-3.97

>  <QM_Energy>  (1095) 
-11.64

>  <source>  (1095) 
ETAM_MSM

>  <Index>  (1095) 
6680

$$$$
ETAM-pdb4hsn-C-LYS-188:MSM-pdb4hsn-C-MET-302
     RDKit          3D

 20 18  0  0  0  0  0  0  0  0999 V2000
    1.2223    0.9449    0.0000 C   0  0  0  0  0  0  0  0  0  0  0  0
    1.2033    1.4596    0.8420 H   0  0  0  0  0  0  0  0  0  0  0  0
    1.1457    1.5340   -0.7884 H   0  0  0  0  0  0  0  0  0  0  0  0
    2.1389    0.3580   -0.0586 H   0  0  0  0  0  0  0  0  0  0  0  0
    0.0000    0.0000    0.0000 C   0  0  0  0  0  0  0  0  0  0  0  0
    0.0341   -0.5524   -0.8163 H   0  0  0  0  0  0  0  0  0  0  0  0
    0.0332   -0.5527    0.8158 H   0  0  0  0  0  0  0  0  0  0  0  0
   -1.2223    0.8341    0.0000 N   0  0  0  0  0  4  0  0  0  0  0  0
   -1.4058    1.1599    0.9284 H   0  0  0  0  0  0  0  0  0  0  0  0
   -1.0934    1.6197   -0.6077 H   0  0  0  0  0  0  0  0  0  0  0  0
   -1.9999    0.2908   -0.3203 H   0  0  0  0  0  0  0  0  0  0  0  0
   -4.3789   -3.2647    1.2695 C   0  0  0  0  0  0  0  0  0  0  0  0
   -5.1026   -2.8461    0.6760 H   0  0  0  0  0  0  0  0  0  0  0  0
   -4.8258   -3.4184    2.1801 H   0  0  0  0  0  0  0  0  0  0  0  0
   -4.0885   -4.2273    0.8486 H   0  0  0  0  0  0  0  0  0  0  0  0
   -2.9706   -2.0825    1.4607 S   0  0  0  0  0  0  0  0  0  0  0  0
   -1.7766   -3.0943    2.2474 C   0  0  0  0  0  0  0  0  0  0  0  0
   -1.9494   -4.0675    2.0486 H   0  0  0  0  0  0  0  0  0  0  0  0
   -0.8493   -2.8656    1.9253 H   0  0  0  0  0  0  0  0  0  0  0  0
   -1.8045   -2.9658    3.2474 H   0  0  0  0  0  0  0  0  0  0  0  0
  1  5  1  0
  5  8  1  0
  1  2  1  0
  1  3  1  0
  1  4  1  0
  5  6  1  0
  5  7  1  0
  8  9  1  0
  8 10  1  0
  8 11  1  0
 12 16  1  0
 16 17  1  0
 12 13  1  0
 12 14  1  0
 12 15  1  0
 17 18  1  0
 17 19  1  0
 17 20  1  0
M  CHG  1   8   1
M  END
>  <PDB_ID>  (1096) 
pdb4hsn

>  <RESIDUE_NAME>  (1096) 
LYS   MET

>  <FRAG_NAME>  (1096) 
ETAM   MSM

>  <FRAG_ATOM_NUM>  (1096) 
fragi: 11  fragj: 9

>  <atom.prop.CHAIN_ID>  (1096) 
A A A A A A A A A A A Z Z Z Z Z Z Z Z Z

>  <atom.prop.IS_HEAVY_ATOM>  (1096) 
1 0 0 0 1 0 0 1 0 0 0 1 0 0 0 1 1 0 0 0

>  <DIFUSE_FUNC_ATOM>  (1096) 
n/a

>  <FINAL_SINGLE_POINT_ENERGY>  (1096) 
0

>  <NONCOV_INTER_ENERGY_QM>  (1096) 
0

>  <FF_Energy>  (1096) 
-5.18

>  <QM_Energy>  (1096) 
-11.2

>  <source>  (1096) 
ETAM_MSM

>  <Index>  (1096) 
6690

$$$$
ETAM-pdb4i15-B-LYS-819:MSM-pdb4i15-B-MET-785
     RDKit          3D

 20 18  0  0  0  0  0  0  0  0999 V2000
    1.2537    0.8707   -0.0000 C   0  0  0  0  0  0  0  0  0  0  0  0
    1.2697    1.4034   -0.8376 H   0  0  0  0  0  0  0  0  0  0  0  0
    2.0506    0.2801    0.0543 H   0  0  0  0  0  0  0  0  0  0  0  0
    1.2668    1.5543    0.8488 H   0  0  0  0  0  0  0  0  0  0  0  0
    0.0000    0.0000    0.0000 C   0  0  0  0  0  0  0  0  0  0  0  0
    0.0120   -0.5851   -0.8163 H   0  0  0  0  0  0  0  0  0  0  0  0
    0.0122   -0.5852    0.8166 H   0  0  0  0  0  0  0  0  0  0  0  0
   -1.2537    0.8122    0.0000 N   0  0  0  0  0  4  0  0  0  0  0  0
   -1.7739    0.6133   -0.8287 H   0  0  0  0  0  0  0  0  0  0  0  0
   -1.7980    0.5774    0.8040 H   0  0  0  0  0  0  0  0  0  0  0  0
   -1.0168    1.7824    0.0252 H   0  0  0  0  0  0  0  0  0  0  0  0
   -5.5783    3.8092   -0.2938 C   0  0  0  0  0  0  0  0  0  0  0  0
   -5.1582    4.6938   -0.0028 H   0  0  0  0  0  0  0  0  0  0  0  0
   -6.4904    3.7660    0.1656 H   0  0  0  0  0  0  0  0  0  0  0  0
   -5.7308    3.8332   -1.3728 H   0  0  0  0  0  0  0  0  0  0  0  0
   -4.5369    2.4099    0.2303 S   0  0  0  0  0  0  0  0  0  0  0  0
   -5.7757    1.1215    0.3879 C   0  0  0  0  0  0  0  0  0  0  0  0
   -5.3494    0.2905    0.7463 H   0  0  0  0  0  0  0  0  0  0  0  0
   -6.4947    1.4239    1.0154 H   0  0  0  0  0  0  0  0  0  0  0  0
   -6.1749    0.9301   -0.5092 H   0  0  0  0  0  0  0  0  0  0  0  0
  1  5  1  0
  5  8  1  0
  1  2  1  0
  1  3  1  0
  1  4  1  0
  5  6  1  0
  5  7  1  0
  8  9  1  0
  8 10  1  0
  8 11  1  0
 12 16  1  0
 16 17  1  0
 12 13  1  0
 12 14  1  0
 12 15  1  0
 17 18  1  0
 17 19  1  0
 17 20  1  0
M  CHG  1   8   1
M  END
>  <PDB_ID>  (1097) 
pdb4i15

>  <RESIDUE_NAME>  (1097) 
LYS   MET

>  <FRAG_NAME>  (1097) 
ETAM   MSM

>  <FRAG_ATOM_NUM>  (1097) 
fragi: 11  fragj: 9

>  <atom.prop.CHAIN_ID>  (1097) 
A A A A A A A A A A A Z Z Z Z Z Z Z Z Z

>  <atom.prop.IS_HEAVY_ATOM>  (1097) 
1 0 0 0 1 0 0 1 0 0 0 1 0 0 0 1 1 0 0 0

>  <DIFUSE_FUNC_ATOM>  (1097) 
n/a

>  <FINAL_SINGLE_POINT_ENERGY>  (1097) 
0

>  <NONCOV_INTER_ENERGY_QM>  (1097) 
0

>  <FF_Energy>  (1097) 
-4.65

>  <QM_Energy>  (1097) 
-10.28

>  <source>  (1097) 
ETAM_MSM

>  <Index>  (1097) 
6693

$$$$
ETAM-pdb3l9c-A-LYS-219:MSM-pdb3l9c-A-MET-1
     RDKit          3D

 20 18  0  0  0  0  0  0  0  0999 V2000
    1.2492    0.8736   -0.0000 C   0  0  0  0  0  0  0  0  0  0  0  0
    1.2279    1.4573   -0.8030 H   0  0  0  0  0  0  0  0  0  0  0  0
    2.0479    0.2835   -0.0174 H   0  0  0  0  0  0  0  0  0  0  0  0
    1.2945    1.5016    0.8897 H   0  0  0  0  0  0  0  0  0  0  0  0
    0.0000    0.0000    0.0000 C   0  0  0  0  0  0  0  0  0  0  0  0
    0.0136   -0.5838   -0.8165 H   0  0  0  0  0  0  0  0  0  0  0  0
    0.0127   -0.5841    0.8166 H   0  0  0  0  0  0  0  0  0  0  0  0
   -1.2492    0.8117   -0.0000 N   0  0  0  0  0  4  0  0  0  0  0  0
   -1.3352    1.2869   -0.8746 H   0  0  0  0  0  0  0  0  0  0  0  0
   -2.0350    0.2090    0.1330 H   0  0  0  0  0  0  0  0  0  0  0  0
   -1.2102    1.4798    0.7428 H   0  0  0  0  0  0  0  0  0  0  0  0
    0.0810    4.6211   -3.3523 C   0  0  0  0  0  0  0  0  0  0  0  0
    0.2992    4.0993   -4.2045 H   0  0  0  0  0  0  0  0  0  0  0  0
    0.4451    5.5651   -3.5003 H   0  0  0  0  0  0  0  0  0  0  0  0
   -1.0023    4.6761   -3.2444 H   0  0  0  0  0  0  0  0  0  0  0  0
    0.8563    3.8566   -1.9203 S   0  0  0  0  0  0  0  0  0  0  0  0
    0.6155    5.1399   -0.6955 C   0  0  0  0  0  0  0  0  0  0  0  0
   -0.1066    5.7632   -0.9988 H   0  0  0  0  0  0  0  0  0  0  0  0
    0.3505    4.7265    0.1773 H   0  0  0  0  0  0  0  0  0  0  0  0
    1.4664    5.6530   -0.5742 H   0  0  0  0  0  0  0  0  0  0  0  0
  1  5  1  0
  5  8  1  0
  1  2  1  0
  1  3  1  0
  1  4  1  0
  5  6  1  0
  5  7  1  0
  8  9  1  0
  8 10  1  0
  8 11  1  0
 12 16  1  0
 16 17  1  0
 12 13  1  0
 12 14  1  0
 12 15  1  0
 17 18  1  0
 17 19  1  0
 17 20  1  0
M  CHG  1   8   1
M  END
>  <PDB_ID>  (1098) 
pdb3l9c

>  <RESIDUE_NAME>  (1098) 
LYS   MET

>  <FRAG_NAME>  (1098) 
ETAM   MSM

>  <FRAG_ATOM_NUM>  (1098) 
fragi: 11  fragj: 9

>  <atom.prop.CHAIN_ID>  (1098) 
A A A A A A A A A A A Z Z Z Z Z Z Z Z Z

>  <atom.prop.IS_HEAVY_ATOM>  (1098) 
1 0 0 0 1 0 0 1 0 0 0 1 0 0 0 1 1 0 0 0

>  <DIFUSE_FUNC_ATOM>  (1098) 
n/a

>  <FINAL_SINGLE_POINT_ENERGY>  (1098) 
0

>  <NONCOV_INTER_ENERGY_QM>  (1098) 
0

>  <FF_Energy>  (1098) 
-3.1

>  <QM_Energy>  (1098) 
-8.75

>  <source>  (1098) 
ETAM_MSM

>  <Index>  (1098) 
6708

$$$$
ETAM-pdb3l9c-B-LYS-219:MSM-pdb3l9c-B-MET-1
     RDKit          3D

 20 18  0  0  0  0  0  0  0  0999 V2000
    1.2313    0.8767   -0.0000 C   0  0  0  0  0  0  0  0  0  0  0  0
    1.2157    1.4542    0.8165 H   0  0  0  0  0  0  0  0  0  0  0  0
    1.2146    1.4545   -0.8159 H   0  0  0  0  0  0  0  0  0  0  0  0
    2.1567    0.3009    0.0002 H   0  0  0  0  0  0  0  0  0  0  0  0
    0.0000    0.0000    0.0000 C   0  0  0  0  0  0  0  0  0  0  0  0
    0.0091   -0.5780   -0.8163 H   0  0  0  0  0  0  0  0  0  0  0  0
    0.0088   -0.5781    0.8162 H   0  0  0  0  0  0  0  0  0  0  0  0
   -1.2313    0.8267    0.0000 N   0  0  0  0  0  4  0  0  0  0  0  0
   -1.9056    0.4209    0.6171 H   0  0  0  0  0  0  0  0  0  0  0  0
   -1.0118    1.7526    0.3091 H   0  0  0  0  0  0  0  0  0  0  0  0
   -1.6078    0.8659   -0.9264 H   0  0  0  0  0  0  0  0  0  0  0  0
   -0.9182   -2.5664   -1.5948 C   0  0  0  0  0  0  0  0  0  0  0  0
   -0.9589   -1.6426   -1.1764 H   0  0  0  0  0  0  0  0  0  0  0  0
   -1.7062   -3.0929   -1.2308 H   0  0  0  0  0  0  0  0  0  0  0  0
   -1.0306   -2.4676   -2.6745 H   0  0  0  0  0  0  0  0  0  0  0  0
    0.6394   -3.3832   -1.1929 S   0  0  0  0  0  0  0  0  0  0  0  0
    0.9395   -2.8264    0.4814 C   0  0  0  0  0  0  0  0  0  0  0  0
    1.5346   -2.0212    0.4660 H   0  0  0  0  0  0  0  0  0  0  0  0
    0.0703   -2.5875    0.9180 H   0  0  0  0  0  0  0  0  0  0  0  0
    1.3831   -3.5563    1.0044 H   0  0  0  0  0  0  0  0  0  0  0  0
  1  5  1  0
  5  8  1  0
  1  2  1  0
  1  3  1  0
  1  4  1  0
  5  6  1  0
  5  7  1  0
  8  9  1  0
  8 10  1  0
  8 11  1  0
 12 16  1  0
 16 17  1  0
 12 13  1  0
 12 14  1  0
 12 15  1  0
 17 18  1  0
 17 19  1  0
 17 20  1  0
M  CHG  1   8   1
M  END
>  <PDB_ID>  (1099) 
pdb3l9c

>  <RESIDUE_NAME>  (1099) 
LYS   MET

>  <FRAG_NAME>  (1099) 
ETAM   MSM

>  <FRAG_ATOM_NUM>  (1099) 
fragi: 11  fragj: 9

>  <atom.prop.CHAIN_ID>  (1099) 
A A A A A A A A A A A Z Z Z Z Z Z Z Z Z

>  <atom.prop.IS_HEAVY_ATOM>  (1099) 
1 0 0 0 1 0 0 1 0 0 0 1 0 0 0 1 1 0 0 0

>  <DIFUSE_FUNC_ATOM>  (1099) 
n/a

>  <FINAL_SINGLE_POINT_ENERGY>  (1099) 
0

>  <NONCOV_INTER_ENERGY_QM>  (1099) 
0

>  <FF_Energy>  (1099) 
46.54

>  <QM_Energy>  (1099) 
8.46

>  <source>  (1099) 
ETAM_MSM

>  <Index>  (1099) 
6709

$$$$
ETAM-pdb4hwv-B-LYS-337:MSM-pdb4hwv-B-MET-359
     RDKit          3D

 20 18  0  0  0  0  0  0  0  0999 V2000
    1.2191    0.8881   -0.0000 C   0  0  0  0  0  0  0  0  0  0  0  0
    1.1460    1.5441   -0.7439 H   0  0  0  0  0  0  0  0  0  0  0  0
    2.0329    0.3268   -0.1127 H   0  0  0  0  0  0  0  0  0  0  0  0
    1.3133    1.4419    0.9341 H   0  0  0  0  0  0  0  0  0  0  0  0
    0.0000    0.0000    0.0000 C   0  0  0  0  0  0  0  0  0  0  0  0
    0.0137   -0.5738   -0.8164 H   0  0  0  0  0  0  0  0  0  0  0  0
    0.0132   -0.5739    0.8163 H   0  0  0  0  0  0  0  0  0  0  0  0
   -1.2191    0.8281   -0.0000 N   0  0  0  0  0  4  0  0  0  0  0  0
   -1.2205    1.4298   -0.8011 H   0  0  0  0  0  0  0  0  0  0  0  0
   -2.0289    0.2390   -0.0298 H   0  0  0  0  0  0  0  0  0  0  0  0
   -1.2487    1.3866    0.8314 H   0  0  0  0  0  0  0  0  0  0  0  0
   -1.5257   -0.6341    4.7390 C   0  0  0  0  0  0  0  0  0  0  0  0
   -1.8605   -1.2664    5.5004 H   0  0  0  0  0  0  0  0  0  0  0  0
   -2.0540    0.2488    4.9236 H   0  0  0  0  0  0  0  0  0  0  0  0
   -0.4707   -0.4305    4.9217 H   0  0  0  0  0  0  0  0  0  0  0  0
   -1.9519   -1.3037    3.1235 S   0  0  0  0  0  0  0  0  0  0  0  0
   -1.1919   -2.8620    3.3516 C   0  0  0  0  0  0  0  0  0  0  0  0
   -1.0553   -3.3254    2.4662 H   0  0  0  0  0  0  0  0  0  0  0  0
   -0.2919   -2.7587    3.7950 H   0  0  0  0  0  0  0  0  0  0  0  0
   -1.7625   -3.4563    3.9333 H   0  0  0  0  0  0  0  0  0  0  0  0
  1  5  1  0
  5  8  1  0
  1  2  1  0
  1  3  1  0
  1  4  1  0
  5  6  1  0
  5  7  1  0
  8  9  1  0
  8 10  1  0
  8 11  1  0
 12 16  1  0
 16 17  1  0
 12 13  1  0
 12 14  1  0
 12 15  1  0
 17 18  1  0
 17 19  1  0
 17 20  1  0
M  CHG  1   8   1
M  END
>  <PDB_ID>  (1100) 
pdb4hwv

>  <RESIDUE_NAME>  (1100) 
LYS   MET

>  <FRAG_NAME>  (1100) 
ETAM   MSM

>  <FRAG_ATOM_NUM>  (1100) 
fragi: 11  fragj: 9

>  <atom.prop.CHAIN_ID>  (1100) 
A A A A A A A A A A A Z Z Z Z Z Z Z Z Z

>  <atom.prop.IS_HEAVY_ATOM>  (1100) 
1 0 0 0 1 0 0 1 0 0 0 1 0 0 0 1 1 0 0 0

>  <DIFUSE_FUNC_ATOM>  (1100) 
n/a

>  <FINAL_SINGLE_POINT_ENERGY>  (1100) 
0

>  <NONCOV_INTER_ENERGY_QM>  (1100) 
0

>  <FF_Energy>  (1100) 
-5.01

>  <QM_Energy>  (1100) 
-10.73

>  <source>  (1100) 
ETAM_MSM

>  <Index>  (1100) 
6716

$$$$
ETAM-pdb4ian-A-LYS-905:MSM-pdb4ian-A-MET-985
     RDKit          3D

 20 18  0  0  0  0  0  0  0  0999 V2000
    1.2281    0.8866    0.0000 C   0  0  0  0  0  0  0  0  0  0  0  0
    1.1578    1.5284   -0.7630 H   0  0  0  0  0  0  0  0  0  0  0  0
    2.0363    0.3115   -0.1182 H   0  0  0  0  0  0  0  0  0  0  0  0
    1.3295    1.4514    0.9267 H   0  0  0  0  0  0  0  0  0  0  0  0
    0.0000    0.0000    0.0000 C   0  0  0  0  0  0  0  0  0  0  0  0
    0.0161   -0.5769   -0.8164 H   0  0  0  0  0  0  0  0  0  0  0  0
    0.0155   -0.5772    0.8161 H   0  0  0  0  0  0  0  0  0  0  0  0
   -1.2281    0.8207    0.0000 N   0  0  0  0  0  4  0  0  0  0  0  0
   -2.0129    0.2523    0.2521 H   0  0  0  0  0  0  0  0  0  0  0  0
   -1.1346    1.5673    0.6612 H   0  0  0  0  0  0  0  0  0  0  0  0
   -1.3776    1.2038   -0.9130 H   0  0  0  0  0  0  0  0  0  0  0  0
   -4.6727    1.7602   -0.0652 C   0  0  0  0  0  0  0  0  0  0  0  0
   -4.6281    0.7957    0.2568 H   0  0  0  0  0  0  0  0  0  0  0  0
   -5.6014    1.8927   -0.4595 H   0  0  0  0  0  0  0  0  0  0  0  0
   -4.5549    2.4233    0.7918 H   0  0  0  0  0  0  0  0  0  0  0  0
   -3.3995    2.0723   -1.3172 S   0  0  0  0  0  0  0  0  0  0  0  0
   -4.1232    3.4820   -2.1589 C   0  0  0  0  0  0  0  0  0  0  0  0
   -4.8299    3.8904   -1.5794 H   0  0  0  0  0  0  0  0  0  0  0  0
   -3.4124    4.1615   -2.3456 H   0  0  0  0  0  0  0  0  0  0  0  0
   -4.5318    3.1827   -3.0210 H   0  0  0  0  0  0  0  0  0  0  0  0
  1  5  1  0
  5  8  1  0
  1  2  1  0
  1  3  1  0
  1  4  1  0
  5  6  1  0
  5  7  1  0
  8  9  1  0
  8 10  1  0
  8 11  1  0
 12 16  1  0
 16 17  1  0
 12 13  1  0
 12 14  1  0
 12 15  1  0
 17 18  1  0
 17 19  1  0
 17 20  1  0
M  CHG  1   8   1
M  END
>  <PDB_ID>  (1101) 
pdb4ian

>  <RESIDUE_NAME>  (1101) 
LYS   MET

>  <FRAG_NAME>  (1101) 
ETAM   MSM

>  <FRAG_ATOM_NUM>  (1101) 
fragi: 11  fragj: 9

>  <atom.prop.CHAIN_ID>  (1101) 
A A A A A A A A A A A Z Z Z Z Z Z Z Z Z

>  <atom.prop.IS_HEAVY_ATOM>  (1101) 
1 0 0 0 1 0 0 1 0 0 0 1 0 0 0 1 1 0 0 0

>  <DIFUSE_FUNC_ATOM>  (1101) 
n/a

>  <FINAL_SINGLE_POINT_ENERGY>  (1101) 
0

>  <NONCOV_INTER_ENERGY_QM>  (1101) 
0

>  <FF_Energy>  (1101) 
1.07

>  <QM_Energy>  (1101) 
-9.82

>  <source>  (1101) 
ETAM_MSM

>  <Index>  (1101) 
6733

$$$$
ETAM-pdb4ian-B-LYS-827:MSM-pdb4ian-B-MET-772
     RDKit          3D

 20 18  0  0  0  0  0  0  0  0999 V2000
    1.2558    0.8674    0.0000 C   0  0  0  0  0  0  0  0  0  0  0  0
    1.1810    1.5266   -0.7357 H   0  0  0  0  0  0  0  0  0  0  0  0
    2.0424    0.2793   -0.1296 H   0  0  0  0  0  0  0  0  0  0  0  0
    1.3545    1.3969    0.9476 H   0  0  0  0  0  0  0  0  0  0  0  0
    0.0000    0.0000    0.0000 C   0  0  0  0  0  0  0  0  0  0  0  0
    0.0151   -0.5899   -0.8162 H   0  0  0  0  0  0  0  0  0  0  0  0
    0.0150   -0.5896    0.8164 H   0  0  0  0  0  0  0  0  0  0  0  0
   -1.2558    0.8006   -0.0000 N   0  0  0  0  0  4  0  0  0  0  0  0
   -1.1771    1.5396   -0.6680 H   0  0  0  0  0  0  0  0  0  0  0  0
   -2.0249    0.2101   -0.2425 H   0  0  0  0  0  0  0  0  0  0  0  0
   -1.4031    1.1860    0.9109 H   0  0  0  0  0  0  0  0  0  0  0  0
   -1.5801   -2.8237    3.4522 C   0  0  0  0  0  0  0  0  0  0  0  0
   -1.5149   -1.8851    3.8405 H   0  0  0  0  0  0  0  0  0  0  0  0
   -0.6292   -3.1827    3.3945 H   0  0  0  0  0  0  0  0  0  0  0  0
   -2.1577   -3.4509    4.1313 H   0  0  0  0  0  0  0  0  0  0  0  0
   -2.3383   -2.7749    1.8061 S   0  0  0  0  0  0  0  0  0  0  0  0
   -2.7887   -1.0619    1.7112 C   0  0  0  0  0  0  0  0  0  0  0  0
   -3.7886   -0.9676    1.7123 H   0  0  0  0  0  0  0  0  0  0  0  0
   -2.4154   -0.5631    2.4986 H   0  0  0  0  0  0  0  0  0  0  0  0
   -2.4246   -0.6563    0.8681 H   0  0  0  0  0  0  0  0  0  0  0  0
  1  5  1  0
  5  8  1  0
  1  2  1  0
  1  3  1  0
  1  4  1  0
  5  6  1  0
  5  7  1  0
  8  9  1  0
  8 10  1  0
  8 11  1  0
 12 16  1  0
 16 17  1  0
 12 13  1  0
 12 14  1  0
 12 15  1  0
 17 18  1  0
 17 19  1  0
 17 20  1  0
M  CHG  1   8   1
M  END
>  <PDB_ID>  (1102) 
pdb4ian

>  <RESIDUE_NAME>  (1102) 
LYS   MET

>  <FRAG_NAME>  (1102) 
ETAM   MSM

>  <FRAG_ATOM_NUM>  (1102) 
fragi: 11  fragj: 9

>  <atom.prop.CHAIN_ID>  (1102) 
A A A A A A A A A A A Z Z Z Z Z Z Z Z Z

>  <atom.prop.IS_HEAVY_ATOM>  (1102) 
1 0 0 0 1 0 0 1 0 0 0 1 0 0 0 1 1 0 0 0

>  <DIFUSE_FUNC_ATOM>  (1102) 
n/a

>  <FINAL_SINGLE_POINT_ENERGY>  (1102) 
0

>  <NONCOV_INTER_ENERGY_QM>  (1102) 
0

>  <FF_Energy>  (1102) 
14.34

>  <QM_Energy>  (1102) 
4.58

>  <source>  (1102) 
ETAM_MSM

>  <Index>  (1102) 
6734

$$$$
ETAM-pdb3lfh-A-LYS-4:MSM-pdb3lfh-A-MET-1
     RDKit          3D

 20 18  0  0  0  0  0  0  0  0999 V2000
    1.2572    0.8643    0.0000 C   0  0  0  0  0  0  0  0  0  0  0  0
    1.1833    1.5271   -0.7405 H   0  0  0  0  0  0  0  0  0  0  0  0
    2.0452    0.2725   -0.1471 H   0  0  0  0  0  0  0  0  0  0  0  0
    1.3842    1.3980    0.9419 H   0  0  0  0  0  0  0  0  0  0  0  0
    0.0000    0.0000    0.0000 C   0  0  0  0  0  0  0  0  0  0  0  0
    0.0171   -0.5934   -0.8165 H   0  0  0  0  0  0  0  0  0  0  0  0
    0.0162   -0.5933    0.8157 H   0  0  0  0  0  0  0  0  0  0  0  0
   -1.2572    0.7942    0.0000 N   0  0  0  0  0  4  0  0  0  0  0  0
   -1.0351    1.7685    0.0378 H   0  0  0  0  0  0  0  0  0  0  0  0
   -1.7719    0.6013   -0.8352 H   0  0  0  0  0  0  0  0  0  0  0  0
   -1.8072    0.5452    0.7969 H   0  0  0  0  0  0  0  0  0  0  0  0
   -4.0338    0.2168    2.4195 C   0  0  0  0  0  0  0  0  0  0  0  0
   -3.1685    0.7534    2.4914 H   0  0  0  0  0  0  0  0  0  0  0  0
   -3.9040   -0.6140    2.9989 H   0  0  0  0  0  0  0  0  0  0  0  0
   -4.8492    0.8100    2.8333 H   0  0  0  0  0  0  0  0  0  0  0  0
   -4.3598   -0.2429    0.7107 S   0  0  0  0  0  0  0  0  0  0  0  0
   -4.5418    1.3646   -0.0446 C   0  0  0  0  0  0  0  0  0  0  0  0
   -4.2665    2.0768    0.6046 H   0  0  0  0  0  0  0  0  0  0  0  0
   -3.9643    1.4221   -0.8614 H   0  0  0  0  0  0  0  0  0  0  0  0
   -5.4982    1.5090   -0.3066 H   0  0  0  0  0  0  0  0  0  0  0  0
  1  5  1  0
  5  8  1  0
  1  2  1  0
  1  3  1  0
  1  4  1  0
  5  6  1  0
  5  7  1  0
  8  9  1  0
  8 10  1  0
  8 11  1  0
 12 16  1  0
 16 17  1  0
 12 13  1  0
 12 14  1  0
 12 15  1  0
 17 18  1  0
 17 19  1  0
 17 20  1  0
M  CHG  1   8   1
M  END
>  <PDB_ID>  (1103) 
pdb3lfh

>  <RESIDUE_NAME>  (1103) 
LYS   MET

>  <FRAG_NAME>  (1103) 
ETAM   MSM

>  <FRAG_ATOM_NUM>  (1103) 
fragi: 11  fragj: 9

>  <atom.prop.CHAIN_ID>  (1103) 
A A A A A A A A A A A Z Z Z Z Z Z Z Z Z

>  <atom.prop.IS_HEAVY_ATOM>  (1103) 
1 0 0 0 1 0 0 1 0 0 0 1 0 0 0 1 1 0 0 0

>  <DIFUSE_FUNC_ATOM>  (1103) 
n/a

>  <FINAL_SINGLE_POINT_ENERGY>  (1103) 
0

>  <NONCOV_INTER_ENERGY_QM>  (1103) 
0

>  <FF_Energy>  (1103) 
-2.69

>  <QM_Energy>  (1103) 
-8.84

>  <source>  (1103) 
ETAM_MSM

>  <Index>  (1103) 
6746

$$$$
ETAM-pdb3lfh-E-LYS-4:MSM-pdb3lfh-E-MET-1
     RDKit          3D

 20 18  0  0  0  0  0  0  0  0999 V2000
    1.2444    0.8782    0.0000 C   0  0  0  0  0  0  0  0  0  0  0  0
    1.1313    1.5861   -0.6877 H   0  0  0  0  0  0  0  0  0  0  0  0
    2.0313    0.3099   -0.2112 H   0  0  0  0  0  0  0  0  0  0  0  0
    1.3952    1.3488    0.9716 H   0  0  0  0  0  0  0  0  0  0  0  0
    0.0000    0.0000    0.0000 C   0  0  0  0  0  0  0  0  0  0  0  0
    0.0191   -0.5860   -0.8161 H   0  0  0  0  0  0  0  0  0  0  0  0
    0.0194   -0.5864    0.8160 H   0  0  0  0  0  0  0  0  0  0  0  0
   -1.2444    0.8014   -0.0000 N   0  0  0  0  0  4  0  0  0  0  0  0
   -1.0337    1.7482    0.2488 H   0  0  0  0  0  0  0  0  0  0  0  0
   -1.6557    0.7819   -0.9119 H   0  0  0  0  0  0  0  0  0  0  0  0
   -1.8894    0.4198    0.6631 H   0  0  0  0  0  0  0  0  0  0  0  0
   -3.6849   -0.5170    2.6969 C   0  0  0  0  0  0  0  0  0  0  0  0
   -2.7949   -0.0728    2.9405 H   0  0  0  0  0  0  0  0  0  0  0  0
   -3.5436   -1.5202    2.8470 H   0  0  0  0  0  0  0  0  0  0  0  0
   -4.4502   -0.1650    3.3886 H   0  0  0  0  0  0  0  0  0  0  0  0
   -4.1049   -0.1879    0.9635 S   0  0  0  0  0  0  0  0  0  0  0  0
   -4.2521    1.5968    0.9766 C   0  0  0  0  0  0  0  0  0  0  0  0
   -4.7980    1.8945    0.1922 H   0  0  0  0  0  0  0  0  0  0  0  0
   -4.7003    1.8907    1.8225 H   0  0  0  0  0  0  0  0  0  0  0  0
   -3.3418    2.0094    0.9230 H   0  0  0  0  0  0  0  0  0  0  0  0
  1  5  1  0
  5  8  1  0
  1  2  1  0
  1  3  1  0
  1  4  1  0
  5  6  1  0
  5  7  1  0
  8  9  1  0
  8 10  1  0
  8 11  1  0
 12 16  1  0
 16 17  1  0
 12 13  1  0
 12 14  1  0
 12 15  1  0
 17 18  1  0
 17 19  1  0
 17 20  1  0
M  CHG  1   8   1
M  END
>  <PDB_ID>  (1104) 
pdb3lfh

>  <RESIDUE_NAME>  (1104) 
LYS   MET

>  <FRAG_NAME>  (1104) 
ETAM   MSM

>  <FRAG_ATOM_NUM>  (1104) 
fragi: 11  fragj: 9

>  <atom.prop.CHAIN_ID>  (1104) 
A A A A A A A A A A A Z Z Z Z Z Z Z Z Z

>  <atom.prop.IS_HEAVY_ATOM>  (1104) 
1 0 0 0 1 0 0 1 0 0 0 1 0 0 0 1 1 0 0 0

>  <DIFUSE_FUNC_ATOM>  (1104) 
n/a

>  <FINAL_SINGLE_POINT_ENERGY>  (1104) 
0

>  <NONCOV_INTER_ENERGY_QM>  (1104) 
0

>  <FF_Energy>  (1104) 
-2.47

>  <QM_Energy>  (1104) 
-11.23

>  <source>  (1104) 
ETAM_MSM

>  <Index>  (1104) 
6748

$$$$
ETAM-pdb3lfh-C-LYS-4:MSM-pdb3lfh-C-MET-1
     RDKit          3D

 20 18  0  0  0  0  0  0  0  0999 V2000
    1.2399    0.8832   -0.0000 C   0  0  0  0  0  0  0  0  0  0  0  0
    1.2169    1.4623   -0.8115 H   0  0  0  0  0  0  0  0  0  0  0  0
    2.0462    0.2976   -0.0198 H   0  0  0  0  0  0  0  0  0  0  0  0
    1.2885    1.5192    0.8839 H   0  0  0  0  0  0  0  0  0  0  0  0
    0.0000    0.0000    0.0000 C   0  0  0  0  0  0  0  0  0  0  0  0
    0.0199   -0.5832   -0.8159 H   0  0  0  0  0  0  0  0  0  0  0  0
    0.0202   -0.5830    0.8162 H   0  0  0  0  0  0  0  0  0  0  0  0
   -1.2399    0.8058    0.0000 N   0  0  0  0  0  4  0  0  0  0  0  0
   -1.1002    1.6379   -0.5390 H   0  0  0  0  0  0  0  0  0  0  0  0
   -1.9872    0.2733   -0.4006 H   0  0  0  0  0  0  0  0  0  0  0  0
   -1.4786    1.0557    0.9400 H   0  0  0  0  0  0  0  0  0  0  0  0
   -4.2691    0.5364    1.9623 C   0  0  0  0  0  0  0  0  0  0  0  0
   -3.4433    1.0610    2.2430 H   0  0  0  0  0  0  0  0  0  0  0  0
   -4.2806   -0.3135    2.5221 H   0  0  0  0  0  0  0  0  0  0  0  0
   -5.1555    1.1253    2.1980 H   0  0  0  0  0  0  0  0  0  0  0  0
   -4.2074    0.1415    0.2028 S   0  0  0  0  0  0  0  0  0  0  0  0
   -4.3513    1.7783   -0.5076 C   0  0  0  0  0  0  0  0  0  0  0  0
   -3.4943    2.0239   -0.9620 H   0  0  0  0  0  0  0  0  0  0  0  0
   -5.0967    1.7904   -1.1767 H   0  0  0  0  0  0  0  0  0  0  0  0
   -4.5452    2.4431    0.2153 H   0  0  0  0  0  0  0  0  0  0  0  0
  1  5  1  0
  5  8  1  0
  1  2  1  0
  1  3  1  0
  1  4  1  0
  5  6  1  0
  5  7  1  0
  8  9  1  0
  8 10  1  0
  8 11  1  0
 12 16  1  0
 16 17  1  0
 12 13  1  0
 12 14  1  0
 12 15  1  0
 17 18  1  0
 17 19  1  0
 17 20  1  0
M  CHG  1   8   1
M  END
>  <PDB_ID>  (1105) 
pdb3lfh

>  <RESIDUE_NAME>  (1105) 
LYS   MET

>  <FRAG_NAME>  (1105) 
ETAM   MSM

>  <FRAG_ATOM_NUM>  (1105) 
fragi: 11  fragj: 9

>  <atom.prop.CHAIN_ID>  (1105) 
A A A A A A A A A A A Z Z Z Z Z Z Z Z Z

>  <atom.prop.IS_HEAVY_ATOM>  (1105) 
1 0 0 0 1 0 0 1 0 0 0 1 0 0 0 1 1 0 0 0

>  <DIFUSE_FUNC_ATOM>  (1105) 
n/a

>  <FINAL_SINGLE_POINT_ENERGY>  (1105) 
0

>  <NONCOV_INTER_ENERGY_QM>  (1105) 
0

>  <FF_Energy>  (1105) 
-1.71

>  <QM_Energy>  (1105) 
-10.52

>  <source>  (1105) 
ETAM_MSM

>  <Index>  (1105) 
6760

$$$$
ETAM-pdb3lfk-D-LYS-55:MSM-pdb3lfk-A-MET-4
     RDKit          3D

 20 18  0  0  0  0  0  0  0  0999 V2000
    1.2915    0.8548    0.0000 C   0  0  0  0  0  0  0  0  0  0  0  0
    1.2357    1.5010   -0.7635 H   0  0  0  0  0  0  0  0  0  0  0  0
    2.0698    0.2401   -0.1440 H   0  0  0  0  0  0  0  0  0  0  0  0
    1.4585    1.4177    0.9183 H   0  0  0  0  0  0  0  0  0  0  0  0
    0.0000    0.0000    0.0000 C   0  0  0  0  0  0  0  0  0  0  0  0
    0.0259   -0.6083   -0.8162 H   0  0  0  0  0  0  0  0  0  0  0  0
    0.0263   -0.6078    0.8165 H   0  0  0  0  0  0  0  0  0  0  0  0
   -1.2915    0.7586   -0.0000 N   0  0  0  0  0  4  0  0  0  0  0  0
   -1.4751    1.0920    0.9231 H   0  0  0  0  0  0  0  0  0  0  0  0
   -1.2172    1.5290   -0.6297 H   0  0  0  0  0  0  0  0  0  0  0  0
   -2.0274    0.1518   -0.2931 H   0  0  0  0  0  0  0  0  0  0  0  0
    3.2323   -1.9671   -1.5829 C   0  0  0  0  0  0  0  0  0  0  0  0
    3.8149   -2.5234   -2.2212 H   0  0  0  0  0  0  0  0  0  0  0  0
    3.7988   -1.1410   -1.3515 H   0  0  0  0  0  0  0  0  0  0  0  0
    2.3473   -1.6369   -2.1267 H   0  0  0  0  0  0  0  0  0  0  0  0
    2.8061   -2.8810   -0.1374 S   0  0  0  0  0  0  0  0  0  0  0  0
    2.5869   -1.7099    0.9937 C   0  0  0  0  0  0  0  0  0  0  0  0
    1.6877   -1.2192    0.9070 H   0  0  0  0  0  0  0  0  0  0  0  0
    2.6084   -2.0638    1.9588 H   0  0  0  0  0  0  0  0  0  0  0  0
    3.3010   -0.9703    0.9624 H   0  0  0  0  0  0  0  0  0  0  0  0
  1  5  1  0
  5  8  1  0
  1  2  1  0
  1  3  1  0
  1  4  1  0
  5  6  1  0
  5  7  1  0
  8  9  1  0
  8 10  1  0
  8 11  1  0
 12 16  1  0
 16 17  1  0
 12 13  1  0
 12 14  1  0
 12 15  1  0
 17 18  1  0
 17 19  1  0
 17 20  1  0
M  CHG  1   8   1
M  END
>  <PDB_ID>  (1106) 
pdb3lfk

>  <RESIDUE_NAME>  (1106) 
LYS   MET

>  <FRAG_NAME>  (1106) 
ETAM   MSM

>  <FRAG_ATOM_NUM>  (1106) 
fragi: 11  fragj: 9

>  <atom.prop.CHAIN_ID>  (1106) 
A A A A A A A A A A A Z Z Z Z Z Z Z Z Z

>  <atom.prop.IS_HEAVY_ATOM>  (1106) 
1 0 0 0 1 0 0 1 0 0 0 1 0 0 0 1 1 0 0 0

>  <DIFUSE_FUNC_ATOM>  (1106) 
n/a

>  <FINAL_SINGLE_POINT_ENERGY>  (1106) 
0

>  <NONCOV_INTER_ENERGY_QM>  (1106) 
0

>  <FF_Energy>  (1106) 
17.23

>  <QM_Energy>  (1106) 
5.18

>  <source>  (1106) 
ETAM_MSM

>  <Index>  (1106) 
6762

$$$$
ETAM-pdb4ikc-A-LYS-2775:MSM-pdb4ikc-A-MET-2835
     RDKit          3D

 20 18  0  0  0  0  0  0  0  0999 V2000
    1.2726    0.8739   -0.0000 C   0  0  0  0  0  0  0  0  0  0  0  0
    2.0453    0.2942   -0.0836 H   0  0  0  0  0  0  0  0  0  0  0  0
    1.3072    1.3705    0.8318 H   0  0  0  0  0  0  0  0  0  0  0  0
    1.2438    1.5678   -0.8402 H   0  0  0  0  0  0  0  0  0  0  0  0
    0.0000    0.0000    0.0000 C   0  0  0  0  0  0  0  0  0  0  0  0
    0.0002   -0.5561   -0.7940 H   0  0  0  0  0  0  0  0  0  0  0  0
   -0.0005   -0.5561    0.7951 H   0  0  0  0  0  0  0  0  0  0  0  0
   -1.2726    0.8125    0.0000 N   0  0  0  0  0  4  0  0  0  0  0  0
   -1.9794    0.2704    0.0003 H   0  0  0  0  0  0  0  0  0  0  0  0
   -1.3044    1.3288    0.7248 H   0  0  0  0  0  0  0  0  0  0  0  0
   -1.3044    1.3284   -0.7244 H   0  0  0  0  0  0  0  0  0  0  0  0
    1.8663    0.0913    3.3362 C   0  0  0  0  0  0  0  0  0  0  0  0
    2.6421    0.5468    2.9746 H   0  0  0  0  0  0  0  0  0  0  0  0
    1.5273   -0.5818    2.7265 H   0  0  0  0  0  0  0  0  0  0  0  0
    2.0967   -0.3497    4.3060 H   0  0  0  0  0  0  0  0  0  0  0  0
    0.5689    1.2932    3.6969 S   0  0  0  0  0  0  0  0  0  0  0  0
    1.4161    2.6966    4.5149 C   0  0  0  0  0  0  0  0  0  0  0  0
    0.7670    3.3702    4.7303 H   0  0  0  0  0  0  0  0  0  0  0  0
    1.8394    2.3810    5.3166 H   0  0  0  0  0  0  0  0  0  0  0  0
    2.0744    3.0547    3.9154 H   0  0  0  0  0  0  0  0  0  0  0  0
  1  5  1  0
  5  8  1  0
  1  2  1  0
  1  3  1  0
  1  4  1  0
  5  6  1  0
  5  7  1  0
  8  9  1  0
  8 10  1  0
  8 11  1  0
 12 16  1  0
 16 17  1  0
 12 13  1  0
 12 14  1  0
 12 15  1  0
 17 18  1  0
 17 19  1  0
 17 20  1  0
M  CHG  1   8   1
M  END
>  <PDB_ID>  (1107) 
pdb4ikc

>  <RESIDUE_NAME>  (1107) 
LYS   MET

>  <FRAG_NAME>  (1107) 
ETAM   MSM

>  <FRAG_ATOM_NUM>  (1107) 
fragi: 11  fragj: 9

>  <atom.prop.CHAIN_ID>  (1107) 
A A A A A A A A A A A Z Z Z Z Z Z Z Z Z

>  <atom.prop.IS_HEAVY_ATOM>  (1107) 
1 0 0 0 1 0 0 1 0 0 0 1 0 0 0 1 1 0 0 0

>  <DIFUSE_FUNC_ATOM>  (1107) 
n/a

>  <FINAL_SINGLE_POINT_ENERGY>  (1107) 
0

>  <NONCOV_INTER_ENERGY_QM>  (1107) 
0

>  <FF_Energy>  (1107) 
-4.02

>  <QM_Energy>  (1107) 
-9.74

>  <source>  (1107) 
ETAM_MSM

>  <Index>  (1107) 
6787

$$$$
ETAM-pdb4il2-B-LYS-198:MSM-pdb4il2-B-MET-166
     RDKit          3D

 20 18  0  0  0  0  0  0  0  0999 V2000
    1.2935    0.8787    0.0000 C   0  0  0  0  0  0  0  0  0  0  0  0
    1.2611    1.4584    0.8034 H   0  0  0  0  0  0  0  0  0  0  0  0
    1.2866    1.4207   -0.8295 H   0  0  0  0  0  0  0  0  0  0  0  0
    2.1964    0.2686    0.0285 H   0  0  0  0  0  0  0  0  0  0  0  0
    0.0000    0.0000    0.0000 C   0  0  0  0  0  0  0  0  0  0  0  0
    0.0162   -0.5830   -0.8165 H   0  0  0  0  0  0  0  0  0  0  0  0
    0.0155   -0.5835    0.8169 H   0  0  0  0  0  0  0  0  0  0  0  0
   -1.2935    0.8086    0.0000 N   0  0  0  0  0  4  0  0  0  0  0  0
   -2.0591    0.1749   -0.0279 H   0  0  0  0  0  0  0  0  0  0  0  0
   -1.3215    1.3538    0.8297 H   0  0  0  0  0  0  0  0  0  0  0  0
   -1.2969    1.3946   -0.8027 H   0  0  0  0  0  0  0  0  0  0  0  0
    0.9186    5.1155    1.4883 C   0  0  0  0  0  0  0  0  0  0  0  0
    1.3288    5.0751    0.5272 H   0  0  0  0  0  0  0  0  0  0  0  0
    1.7500    4.9417    2.0981 H   0  0  0  0  0  0  0  0  0  0  0  0
    0.5960    6.1421    1.6617 H   0  0  0  0  0  0  0  0  0  0  0  0
   -0.3152    3.8259    1.7099 S   0  0  0  0  0  0  0  0  0  0  0  0
   -0.9544    4.2296    3.3293 C   0  0  0  0  0  0  0  0  0  0  0  0
   -1.9235    3.9833    3.3807 H   0  0  0  0  0  0  0  0  0  0  0  0
   -0.4474    3.7225    4.0292 H   0  0  0  0  0  0  0  0  0  0  0  0
   -0.8541    5.2124    3.4971 H   0  0  0  0  0  0  0  0  0  0  0  0
  1  5  1  0
  5  8  1  0
  1  2  1  0
  1  3  1  0
  1  4  1  0
  5  6  1  0
  5  7  1  0
  8  9  1  0
  8 10  1  0
  8 11  1  0
 12 16  1  0
 16 17  1  0
 12 13  1  0
 12 14  1  0
 12 15  1  0
 17 18  1  0
 17 19  1  0
 17 20  1  0
M  CHG  1   8   1
M  END
>  <PDB_ID>  (1108) 
pdb4il2

>  <RESIDUE_NAME>  (1108) 
LYS   MET

>  <FRAG_NAME>  (1108) 
ETAM   MSM

>  <FRAG_ATOM_NUM>  (1108) 
fragi: 11  fragj: 9

>  <atom.prop.CHAIN_ID>  (1108) 
A A A A A A A A A A A Z Z Z Z Z Z Z Z Z

>  <atom.prop.IS_HEAVY_ATOM>  (1108) 
1 0 0 0 1 0 0 1 0 0 0 1 0 0 0 1 1 0 0 0

>  <DIFUSE_FUNC_ATOM>  (1108) 
n/a

>  <FINAL_SINGLE_POINT_ENERGY>  (1108) 
0

>  <NONCOV_INTER_ENERGY_QM>  (1108) 
0

>  <FF_Energy>  (1108) 
-5.74

>  <QM_Energy>  (1108) 
-12.2

>  <source>  (1108) 
ETAM_MSM

>  <Index>  (1108) 
6796

$$$$
ETAM-pdb4imm-A-LYS-163:MSM-pdb4imm-A-MET-225
     RDKit          3D

 20 18  0  0  0  0  0  0  0  0999 V2000
    1.2420    0.8761    0.0000 C   0  0  0  0  0  0  0  0  0  0  0  0
    2.0418    0.2954    0.0101 H   0  0  0  0  0  0  0  0  0  0  0  0
    1.2155    1.4674    0.7912 H   0  0  0  0  0  0  0  0  0  0  0  0
    1.2662    1.4917   -0.8992 H   0  0  0  0  0  0  0  0  0  0  0  0
    0.0000    0.0000    0.0000 C   0  0  0  0  0  0  0  0  0  0  0  0
    0.0125   -0.5812   -0.8167 H   0  0  0  0  0  0  0  0  0  0  0  0
    0.0117   -0.5819    0.8160 H   0  0  0  0  0  0  0  0  0  0  0  0
   -1.2420    0.8175    0.0000 N   0  0  0  0  0  4  0  0  0  0  0  0
   -1.8692    0.4689    0.6962 H   0  0  0  0  0  0  0  0  0  0  0  0
   -1.0129    1.7693    0.2036 H   0  0  0  0  0  0  0  0  0  0  0  0
   -1.6759    0.7630   -0.8991 H   0  0  0  0  0  0  0  0  0  0  0  0
   -4.1966    0.2319   -3.7649 C   0  0  0  0  0  0  0  0  0  0  0  0
   -3.7595    0.3746   -4.6770 H   0  0  0  0  0  0  0  0  0  0  0  0
   -5.1948    0.4030   -3.8996 H   0  0  0  0  0  0  0  0  0  0  0  0
   -4.0591   -0.8095   -3.4737 H   0  0  0  0  0  0  0  0  0  0  0  0
   -3.5109    1.3768   -2.5412 S   0  0  0  0  0  0  0  0  0  0  0  0
   -1.9619    1.8639   -3.2997 C   0  0  0  0  0  0  0  0  0  0  0  0
   -1.1983    1.4745   -2.7827 H   0  0  0  0  0  0  0  0  0  0  0  0
   -1.9304    1.5287   -4.2428 H   0  0  0  0  0  0  0  0  0  0  0  0
   -1.8878    2.8625   -3.2990 H   0  0  0  0  0  0  0  0  0  0  0  0
  1  5  1  0
  5  8  1  0
  1  2  1  0
  1  3  1  0
  1  4  1  0
  5  6  1  0
  5  7  1  0
  8  9  1  0
  8 10  1  0
  8 11  1  0
 12 16  1  0
 16 17  1  0
 12 13  1  0
 12 14  1  0
 12 15  1  0
 17 18  1  0
 17 19  1  0
 17 20  1  0
M  CHG  1   8   1
M  END
>  <PDB_ID>  (1109) 
pdb4imm

>  <RESIDUE_NAME>  (1109) 
LYS   MET

>  <FRAG_NAME>  (1109) 
ETAM   MSM

>  <FRAG_ATOM_NUM>  (1109) 
fragi: 11  fragj: 9

>  <atom.prop.CHAIN_ID>  (1109) 
A A A A A A A A A A A Z Z Z Z Z Z Z Z Z

>  <atom.prop.IS_HEAVY_ATOM>  (1109) 
1 0 0 0 1 0 0 1 0 0 0 1 0 0 0 1 1 0 0 0

>  <DIFUSE_FUNC_ATOM>  (1109) 
n/a

>  <FINAL_SINGLE_POINT_ENERGY>  (1109) 
0

>  <NONCOV_INTER_ENERGY_QM>  (1109) 
0

>  <FF_Energy>  (1109) 
-4.23

>  <QM_Energy>  (1109) 
-11.62

>  <source>  (1109) 
ETAM_MSM

>  <Index>  (1109) 
6798

$$$$
ETAM-pdb4il2-A-LYS-155:MSM-pdb4il2-A-MET-129
     RDKit          3D

 20 18  0  0  0  0  0  0  0  0999 V2000
    1.2766    0.8188    0.0000 C   0  0  0  0  0  0  0  0  0  0  0  0
    1.2102    1.5059    0.7056 H   0  0  0  0  0  0  0  0  0  0  0  0
    1.3912    1.2231   -0.8928 H   0  0  0  0  0  0  0  0  0  0  0  0
    2.1201    0.1620    0.2127 H   0  0  0  0  0  0  0  0  0  0  0  0
    0.0000    0.0000    0.0000 C   0  0  0  0  0  0  0  0  0  0  0  0
    0.0057   -0.6140   -0.8160 H   0  0  0  0  0  0  0  0  0  0  0  0
    0.0042   -0.6143    0.8166 H   0  0  0  0  0  0  0  0  0  0  0  0
   -1.2766    0.7772   -0.0000 N   0  0  0  0  0  4  0  0  0  0  0  0
   -1.3598    1.2729   -0.8632 H   0  0  0  0  0  0  0  0  0  0  0  0
   -2.0443    0.1473    0.1019 H   0  0  0  0  0  0  0  0  0  0  0  0
   -1.2670    1.4237    0.7607 H   0  0  0  0  0  0  0  0  0  0  0  0
   -1.6164   -3.1581   -0.5166 C   0  0  0  0  0  0  0  0  0  0  0  0
   -1.2201   -4.0835   -0.3499 H   0  0  0  0  0  0  0  0  0  0  0  0
   -0.8614   -2.5890   -0.9016 H   0  0  0  0  0  0  0  0  0  0  0  0
   -2.4052   -3.2455   -1.2639 H   0  0  0  0  0  0  0  0  0  0  0  0
   -2.2391   -2.4436    1.0130 S   0  0  0  0  0  0  0  0  0  0  0  0
   -3.2576   -3.7897    1.6394 C   0  0  0  0  0  0  0  0  0  0  0  0
   -3.8812   -3.4365    2.3353 H   0  0  0  0  0  0  0  0  0  0  0  0
   -3.7839   -4.1842    0.8871 H   0  0  0  0  0  0  0  0  0  0  0  0
   -2.6690   -4.4903    2.0411 H   0  0  0  0  0  0  0  0  0  0  0  0
  1  5  1  0
  5  8  1  0
  1  2  1  0
  1  3  1  0
  1  4  1  0
  5  6  1  0
  5  7  1  0
  8  9  1  0
  8 10  1  0
  8 11  1  0
 12 16  1  0
 16 17  1  0
 12 13  1  0
 12 14  1  0
 12 15  1  0
 17 18  1  0
 17 19  1  0
 17 20  1  0
M  CHG  1   8   1
M  END
>  <PDB_ID>  (1110) 
pdb4il2

>  <RESIDUE_NAME>  (1110) 
LYS   MET

>  <FRAG_NAME>  (1110) 
ETAM   MSM

>  <FRAG_ATOM_NUM>  (1110) 
fragi: 11  fragj: 9

>  <atom.prop.CHAIN_ID>  (1110) 
A A A A A A A A A A A Z Z Z Z Z Z Z Z Z

>  <atom.prop.IS_HEAVY_ATOM>  (1110) 
1 0 0 0 1 0 0 1 0 0 0 1 0 0 0 1 1 0 0 0

>  <DIFUSE_FUNC_ATOM>  (1110) 
n/a

>  <FINAL_SINGLE_POINT_ENERGY>  (1110) 
0

>  <NONCOV_INTER_ENERGY_QM>  (1110) 
0

>  <FF_Energy>  (1110) 
-4.58

>  <QM_Energy>  (1110) 
-11.93

>  <source>  (1110) 
ETAM_MSM

>  <Index>  (1110) 
6799

$$$$
ETAM-pdb4ioj-B-LYS-219:MSM-pdb4ioj-B-MET-216
     RDKit          3D

 20 18  0  0  0  0  0  0  0  0999 V2000
    1.2732    0.8559    0.0000 C   0  0  0  0  0  0  0  0  0  0  0  0
    1.1209    1.6419    0.5937 H   0  0  0  0  0  0  0  0  0  0  0  0
    1.4429    1.1615   -0.9337 H   0  0  0  0  0  0  0  0  0  0  0  0
    2.1437    0.3059    0.3572 H   0  0  0  0  0  0  0  0  0  0  0  0
    0.0000    0.0000    0.0000 C   0  0  0  0  0  0  0  0  0  0  0  0
    0.0183   -0.6001   -0.8158 H   0  0  0  0  0  0  0  0  0  0  0  0
    0.0178   -0.6007    0.8167 H   0  0  0  0  0  0  0  0  0  0  0  0
   -1.2732    0.7811   -0.0000 N   0  0  0  0  0  4  0  0  0  0  0  0
   -1.9319    0.3372   -0.6061 H   0  0  0  0  0  0  0  0  0  0  0  0
   -1.6395    0.8132    0.9286 H   0  0  0  0  0  0  0  0  0  0  0  0
   -1.0906    1.7081   -0.3227 H   0  0  0  0  0  0  0  0  0  0  0  0
   -1.1221   -2.9739   -4.1431 C   0  0  0  0  0  0  0  0  0  0  0  0
   -0.8291   -2.8354   -5.1044 H   0  0  0  0  0  0  0  0  0  0  0  0
   -2.0457   -3.3914   -4.1683 H   0  0  0  0  0  0  0  0  0  0  0  0
   -0.4341   -3.6702   -3.6635 H   0  0  0  0  0  0  0  0  0  0  0  0
   -1.1594   -1.3925   -3.2526 S   0  0  0  0  0  0  0  0  0  0  0  0
    0.1251   -0.4732   -4.1265 C   0  0  0  0  0  0  0  0  0  0  0  0
   -0.3001    0.2488   -4.6700 H   0  0  0  0  0  0  0  0  0  0  0  0
    0.7524   -0.0708   -3.4609 H   0  0  0  0  0  0  0  0  0  0  0  0
    0.6251   -1.0962   -4.7256 H   0  0  0  0  0  0  0  0  0  0  0  0
  1  5  1  0
  5  8  1  0
  1  2  1  0
  1  3  1  0
  1  4  1  0
  5  6  1  0
  5  7  1  0
  8  9  1  0
  8 10  1  0
  8 11  1  0
 12 16  1  0
 16 17  1  0
 12 13  1  0
 12 14  1  0
 12 15  1  0
 17 18  1  0
 17 19  1  0
 17 20  1  0
M  CHG  1   8   1
M  END
>  <PDB_ID>  (1111) 
pdb4ioj

>  <RESIDUE_NAME>  (1111) 
LYS   MET

>  <FRAG_NAME>  (1111) 
ETAM   MSM

>  <FRAG_ATOM_NUM>  (1111) 
fragi: 11  fragj: 9

>  <atom.prop.CHAIN_ID>  (1111) 
A A A A A A A A A A A Z Z Z Z Z Z Z Z Z

>  <atom.prop.IS_HEAVY_ATOM>  (1111) 
1 0 0 0 1 0 0 1 0 0 0 1 0 0 0 1 1 0 0 0

>  <DIFUSE_FUNC_ATOM>  (1111) 
n/a

>  <FINAL_SINGLE_POINT_ENERGY>  (1111) 
0

>  <NONCOV_INTER_ENERGY_QM>  (1111) 
0

>  <FF_Energy>  (1111) 
-4.53

>  <QM_Energy>  (1111) 
-10.0

>  <source>  (1111) 
ETAM_MSM

>  <Index>  (1111) 
6803

$$$$
ETAM-pdb4ipe-A-LYS-560:MSM-pdb4ipe-A-MET-505
     RDKit          3D

 20 18  0  0  0  0  0  0  0  0999 V2000
    1.2098    0.8775   -0.0000 C   0  0  0  0  0  0  0  0  0  0  0  0
    1.0705    1.6178    0.6458 H   0  0  0  0  0  0  0  0  0  0  0  0
    1.3499    1.2330   -0.9160 H   0  0  0  0  0  0  0  0  0  0  0  0
    2.0818    0.2963    0.2998 H   0  0  0  0  0  0  0  0  0  0  0  0
    0.0000    0.0000    0.0000 C   0  0  0  0  0  0  0  0  0  0  0  0
    0.0015   -0.5711   -0.8163 H   0  0  0  0  0  0  0  0  0  0  0  0
    0.0004   -0.5709    0.8160 H   0  0  0  0  0  0  0  0  0  0  0  0
   -1.2098    0.8482   -0.0000 N   0  0  0  0  0  4  0  0  0  0  0  0
   -0.9457    1.8114    0.0732 H   0  0  0  0  0  0  0  0  0  0  0  0
   -1.7194    0.7084   -0.8512 H   0  0  0  0  0  0  0  0  0  0  0  0
   -1.7917    0.6051    0.7770 H   0  0  0  0  0  0  0  0  0  0  0  0
   -4.9072    0.1798   -1.1585 C   0  0  0  0  0  0  0  0  0  0  0  0
   -5.4315   -0.4866   -1.7411 H   0  0  0  0  0  0  0  0  0  0  0  0
   -5.0492    1.0949   -1.6057 H   0  0  0  0  0  0  0  0  0  0  0  0
   -5.3661    0.2053   -0.1701 H   0  0  0  0  0  0  0  0  0  0  0  0
   -3.1634   -0.2455   -1.1132 S   0  0  0  0  0  0  0  0  0  0  0  0
   -3.2290   -1.7958   -0.2223 C   0  0  0  0  0  0  0  0  0  0  0  0
   -2.2998   -2.1355   -0.0683 H   0  0  0  0  0  0  0  0  0  0  0  0
   -3.6809   -1.6585    0.6605 H   0  0  0  0  0  0  0  0  0  0  0  0
   -3.7434   -2.4691   -0.7566 H   0  0  0  0  0  0  0  0  0  0  0  0
  1  5  1  0
  5  8  1  0
  1  2  1  0
  1  3  1  0
  1  4  1  0
  5  6  1  0
  5  7  1  0
  8  9  1  0
  8 10  1  0
  8 11  1  0
 12 16  1  0
 16 17  1  0
 12 13  1  0
 12 14  1  0
 12 15  1  0
 17 18  1  0
 17 19  1  0
 17 20  1  0
M  CHG  1   8   1
M  END
>  <PDB_ID>  (1112) 
pdb4ipe

>  <RESIDUE_NAME>  (1112) 
LYS   MET

>  <FRAG_NAME>  (1112) 
ETAM   MSM

>  <FRAG_ATOM_NUM>  (1112) 
fragi: 11  fragj: 9

>  <atom.prop.CHAIN_ID>  (1112) 
A A A A A A A A A A A Z Z Z Z Z Z Z Z Z

>  <atom.prop.IS_HEAVY_ATOM>  (1112) 
1 0 0 0 1 0 0 1 0 0 0 1 0 0 0 1 1 0 0 0

>  <DIFUSE_FUNC_ATOM>  (1112) 
n/a

>  <FINAL_SINGLE_POINT_ENERGY>  (1112) 
0

>  <NONCOV_INTER_ENERGY_QM>  (1112) 
0

>  <FF_Energy>  (1112) 
38.41

>  <QM_Energy>  (1112) 
10.18

>  <source>  (1112) 
ETAM_MSM

>  <Index>  (1112) 
6811

$$$$
ETAM-pdb4ith-A-LYS-105:MSM-pdb4ith-A-MET-101
     RDKit          3D

 20 18  0  0  0  0  0  0  0  0999 V2000
    1.2398    0.8678    0.0000 C   0  0  0  0  0  0  0  0  0  0  0  0
    1.1345    1.5749    0.6939 H   0  0  0  0  0  0  0  0  0  0  0  0
    1.3386    1.2823   -0.9002 H   0  0  0  0  0  0  0  0  0  0  0  0
    2.1336    0.2849    0.2224 H   0  0  0  0  0  0  0  0  0  0  0  0
    0.0000    0.0000    0.0000 C   0  0  0  0  0  0  0  0  0  0  0  0
    0.0009   -0.5780   -0.8162 H   0  0  0  0  0  0  0  0  0  0  0  0
    0.0012   -0.5777    0.8167 H   0  0  0  0  0  0  0  0  0  0  0  0
   -1.2398    0.8374    0.0000 N   0  0  0  0  0  4  0  0  0  0  0  0
   -1.9928    0.3068   -0.3847 H   0  0  0  0  0  0  0  0  0  0  0  0
   -1.4568    1.1010    0.9378 H   0  0  0  0  0  0  0  0  0  0  0  0
   -1.0839    1.6541   -0.5535 H   0  0  0  0  0  0  0  0  0  0  0  0
   -0.3065    1.4290    3.6874 C   0  0  0  0  0  0  0  0  0  0  0  0
   -1.3067    1.6100    3.5608 H   0  0  0  0  0  0  0  0  0  0  0  0
    0.1640    1.9252    2.9253 H   0  0  0  0  0  0  0  0  0  0  0  0
    0.0064    1.8725    4.6328 H   0  0  0  0  0  0  0  0  0  0  0  0
    0.0374   -0.3492    3.5990 S   0  0  0  0  0  0  0  0  0  0  0  0
   -1.1300   -0.9757    4.7879 C   0  0  0  0  0  0  0  0  0  0  0  0
   -1.0529   -1.9736    4.8480 H   0  0  0  0  0  0  0  0  0  0  0  0
   -0.9447   -0.5788    5.6899 H   0  0  0  0  0  0  0  0  0  0  0  0
   -2.0626   -0.7354    4.5094 H   0  0  0  0  0  0  0  0  0  0  0  0
  1  5  1  0
  5  8  1  0
  1  2  1  0
  1  3  1  0
  1  4  1  0
  5  6  1  0
  5  7  1  0
  8  9  1  0
  8 10  1  0
  8 11  1  0
 12 16  1  0
 16 17  1  0
 12 13  1  0
 12 14  1  0
 12 15  1  0
 17 18  1  0
 17 19  1  0
 17 20  1  0
M  CHG  1   8   1
M  END
>  <PDB_ID>  (1113) 
pdb4ith

>  <RESIDUE_NAME>  (1113) 
LYS   MET

>  <FRAG_NAME>  (1113) 
ETAM   MSM

>  <FRAG_ATOM_NUM>  (1113) 
fragi: 11  fragj: 9

>  <atom.prop.CHAIN_ID>  (1113) 
A A A A A A A A A A A Z Z Z Z Z Z Z Z Z

>  <atom.prop.IS_HEAVY_ATOM>  (1113) 
1 0 0 0 1 0 0 1 0 0 0 1 0 0 0 1 1 0 0 0

>  <DIFUSE_FUNC_ATOM>  (1113) 
n/a

>  <FINAL_SINGLE_POINT_ENERGY>  (1113) 
0

>  <NONCOV_INTER_ENERGY_QM>  (1113) 
0

>  <FF_Energy>  (1113) 
-3.26

>  <QM_Energy>  (1113) 
-8.41

>  <source>  (1113) 
ETAM_MSM

>  <Index>  (1113) 
6828

$$$$
ETAM-pdb4iuj-A-LYS-536:MSM-pdb4iuj-A-MET-285
     RDKit          3D

 20 18  0  0  0  0  0  0  0  0999 V2000
    1.2732    0.8726   -0.0000 C   0  0  0  0  0  0  0  0  0  0  0  0
    1.2720    1.4250    0.8196 H   0  0  0  0  0  0  0  0  0  0  0  0
    1.2667    1.4328   -0.8140 H   0  0  0  0  0  0  0  0  0  0  0  0
    2.1700    0.2531   -0.0055 H   0  0  0  0  0  0  0  0  0  0  0  0
    0.0000    0.0000    0.0000 C   0  0  0  0  0  0  0  0  0  0  0  0
    0.0265   -0.5961   -0.8164 H   0  0  0  0  0  0  0  0  0  0  0  0
    0.0266   -0.5957    0.8165 H   0  0  0  0  0  0  0  0  0  0  0  0
   -1.2732    0.7767    0.0000 N   0  0  0  0  0  4  0  0  0  0  0  0
   -1.8282    0.4999   -0.7829 H   0  0  0  0  0  0  0  0  0  0  0  0
   -1.7714    0.5936    0.8465 H   0  0  0  0  0  0  0  0  0  0  0  0
   -1.0651    1.7514   -0.0632 H   0  0  0  0  0  0  0  0  0  0  0  0
   -5.0423    1.6857   -0.4720 C   0  0  0  0  0  0  0  0  0  0  0  0
   -4.5355    0.8289   -0.6860 H   0  0  0  0  0  0  0  0  0  0  0  0
   -4.7892    2.3603   -1.1920 H   0  0  0  0  0  0  0  0  0  0  0  0
   -6.1109    1.4837   -0.5446 H   0  0  0  0  0  0  0  0  0  0  0  0
   -4.5834    2.3059    1.1738 S   0  0  0  0  0  0  0  0  0  0  0  0
   -5.0622    4.0257    1.0101 C   0  0  0  0  0  0  0  0  0  0  0  0
   -6.0531    4.1099    1.1230 H   0  0  0  0  0  0  0  0  0  0  0  0
   -4.6008    4.5698    1.7122 H   0  0  0  0  0  0  0  0  0  0  0  0
   -4.8014    4.3611    0.1037 H   0  0  0  0  0  0  0  0  0  0  0  0
  1  5  1  0
  5  8  1  0
  1  2  1  0
  1  3  1  0
  1  4  1  0
  5  6  1  0
  5  7  1  0
  8  9  1  0
  8 10  1  0
  8 11  1  0
 12 16  1  0
 16 17  1  0
 12 13  1  0
 12 14  1  0
 12 15  1  0
 17 18  1  0
 17 19  1  0
 17 20  1  0
M  CHG  1   8   1
M  END
>  <PDB_ID>  (1114) 
pdb4iuj

>  <RESIDUE_NAME>  (1114) 
LYS   MET

>  <FRAG_NAME>  (1114) 
ETAM   MSM

>  <FRAG_ATOM_NUM>  (1114) 
fragi: 11  fragj: 9

>  <atom.prop.CHAIN_ID>  (1114) 
A A A A A A A A A A A Z Z Z Z Z Z Z Z Z

>  <atom.prop.IS_HEAVY_ATOM>  (1114) 
1 0 0 0 1 0 0 1 0 0 0 1 0 0 0 1 1 0 0 0

>  <DIFUSE_FUNC_ATOM>  (1114) 
n/a

>  <FINAL_SINGLE_POINT_ENERGY>  (1114) 
0

>  <NONCOV_INTER_ENERGY_QM>  (1114) 
0

>  <FF_Energy>  (1114) 
-3.25

>  <QM_Energy>  (1114) 
-8.35

>  <source>  (1114) 
ETAM_MSM

>  <Index>  (1114) 
6836

$$$$
ETAM-pdb4irl-A-LYS-423:MSM-pdb4irl-A-MET-394
     RDKit          3D

 20 18  0  0  0  0  0  0  0  0999 V2000
    1.2804    0.8335    0.0000 C   0  0  0  0  0  0  0  0  0  0  0  0
    2.0605    0.2180   -0.0539 H   0  0  0  0  0  0  0  0  0  0  0  0
    1.3150    1.3631    0.8415 H   0  0  0  0  0  0  0  0  0  0  0  0
    1.3220    1.5204   -0.8453 H   0  0  0  0  0  0  0  0  0  0  0  0
    0.0000    0.0000    0.0000 C   0  0  0  0  0  0  0  0  0  0  0  0
   -0.0041   -0.5958   -0.8160 H   0  0  0  0  0  0  0  0  0  0  0  0
   -0.0041   -0.5966    0.8166 H   0  0  0  0  0  0  0  0  0  0  0  0
   -1.2804    0.8158   -0.0000 N   0  0  0  0  0  4  0  0  0  0  0  0
   -1.9008    0.4310    0.6762 H   0  0  0  0  0  0  0  0  0  0  0  0
   -1.0563    1.7563    0.2317 H   0  0  0  0  0  0  0  0  0  0  0  0
   -1.6852    0.7692   -0.9070 H   0  0  0  0  0  0  0  0  0  0  0  0
   -0.0861    0.4294    4.4757 C   0  0  0  0  0  0  0  0  0  0  0  0
   -0.7312   -0.3312    4.2591 H   0  0  0  0  0  0  0  0  0  0  0  0
   -0.2301    0.6547    5.4599 H   0  0  0  0  0  0  0  0  0  0  0  0
    0.9341    0.0685    4.3455 H   0  0  0  0  0  0  0  0  0  0  0  0
   -0.4365    1.8779    3.4337 S   0  0  0  0  0  0  0  0  0  0  0  0
   -1.3565    2.8830    4.6017 C   0  0  0  0  0  0  0  0  0  0  0  0
   -1.9103    3.5503    4.1040 H   0  0  0  0  0  0  0  0  0  0  0  0
   -1.9540    2.2959    5.1495 H   0  0  0  0  0  0  0  0  0  0  0  0
   -0.7187    3.3630    5.2040 H   0  0  0  0  0  0  0  0  0  0  0  0
  1  5  1  0
  5  8  1  0
  1  2  1  0
  1  3  1  0
  1  4  1  0
  5  6  1  0
  5  7  1  0
  8  9  1  0
  8 10  1  0
  8 11  1  0
 12 16  1  0
 16 17  1  0
 12 13  1  0
 12 14  1  0
 12 15  1  0
 17 18  1  0
 17 19  1  0
 17 20  1  0
M  CHG  1   8   1
M  END
>  <PDB_ID>  (1115) 
pdb4irl

>  <RESIDUE_NAME>  (1115) 
LYS   MET

>  <FRAG_NAME>  (1115) 
ETAM   MSM

>  <FRAG_ATOM_NUM>  (1115) 
fragi: 11  fragj: 9

>  <atom.prop.CHAIN_ID>  (1115) 
A A A A A A A A A A A Z Z Z Z Z Z Z Z Z

>  <atom.prop.IS_HEAVY_ATOM>  (1115) 
1 0 0 0 1 0 0 1 0 0 0 1 0 0 0 1 1 0 0 0

>  <DIFUSE_FUNC_ATOM>  (1115) 
n/a

>  <FINAL_SINGLE_POINT_ENERGY>  (1115) 
0

>  <NONCOV_INTER_ENERGY_QM>  (1115) 
0

>  <FF_Energy>  (1115) 
-5.35

>  <QM_Energy>  (1115) 
-12.35

>  <source>  (1115) 
ETAM_MSM

>  <Index>  (1115) 
6837

$$$$
ETAM-pdb3lx2-A-LYS-167:MSM-pdb3lx2-A-MET-158
     RDKit          3D

 20 18  0  0  0  0  0  0  0  0999 V2000
    1.3036    0.8870    0.0000 C   0  0  0  0  0  0  0  0  0  0  0  0
    1.5312    1.0966    0.9434 H   0  0  0  0  0  0  0  0  0  0  0  0
    1.1079    1.7180   -0.5066 H   0  0  0  0  0  0  0  0  0  0  0  0
    2.1657    0.4024   -0.4584 H   0  0  0  0  0  0  0  0  0  0  0  0
    0.0000    0.0000    0.0000 C   0  0  0  0  0  0  0  0  0  0  0  0
    0.0149   -0.5770   -0.8163 H   0  0  0  0  0  0  0  0  0  0  0  0
    0.0149   -0.5772    0.8164 H   0  0  0  0  0  0  0  0  0  0  0  0
   -1.3036    0.8191   -0.0000 N   0  0  0  0  0  4  0  0  0  0  0  0
   -1.9181    0.4151    0.6647 H   0  0  0  0  0  0  0  0  0  0  0  0
   -1.0787    1.7529    0.2468 H   0  0  0  0  0  0  0  0  0  0  0  0
   -1.6911    0.7774   -0.9115 H   0  0  0  0  0  0  0  0  0  0  0  0
    0.8515    3.4759   -4.2276 C   0  0  0  0  0  0  0  0  0  0  0  0
    0.3363    3.0440   -4.9741 H   0  0  0  0  0  0  0  0  0  0  0  0
    1.7838    3.1010   -4.2214 H   0  0  0  0  0  0  0  0  0  0  0  0
    0.9041    4.5490   -4.4110 H   0  0  0  0  0  0  0  0  0  0  0  0
    0.0277    3.1762   -2.6227 S   0  0  0  0  0  0  0  0  0  0  0  0
   -1.5064    4.1075   -2.8740 C   0  0  0  0  0  0  0  0  0  0  0  0
   -2.0613    3.6417   -3.5594 H   0  0  0  0  0  0  0  0  0  0  0  0
   -2.0029    4.1549   -2.0105 H   0  0  0  0  0  0  0  0  0  0  0  0
   -1.2812    5.0272   -3.1879 H   0  0  0  0  0  0  0  0  0  0  0  0
  1  5  1  0
  5  8  1  0
  1  2  1  0
  1  3  1  0
  1  4  1  0
  5  6  1  0
  5  7  1  0
  8  9  1  0
  8 10  1  0
  8 11  1  0
 12 16  1  0
 16 17  1  0
 12 13  1  0
 12 14  1  0
 12 15  1  0
 17 18  1  0
 17 19  1  0
 17 20  1  0
M  CHG  1   8   1
M  END
>  <PDB_ID>  (1116) 
pdb3lx2

>  <RESIDUE_NAME>  (1116) 
LYS   MET

>  <FRAG_NAME>  (1116) 
ETAM   MSM

>  <FRAG_ATOM_NUM>  (1116) 
fragi: 11  fragj: 9

>  <atom.prop.CHAIN_ID>  (1116) 
A A A A A A A A A A A Z Z Z Z Z Z Z Z Z

>  <atom.prop.IS_HEAVY_ATOM>  (1116) 
1 0 0 0 1 0 0 1 0 0 0 1 0 0 0 1 1 0 0 0

>  <DIFUSE_FUNC_ATOM>  (1116) 
n/a

>  <FINAL_SINGLE_POINT_ENERGY>  (1116) 
0

>  <NONCOV_INTER_ENERGY_QM>  (1116) 
0

>  <FF_Energy>  (1116) 
-4.53

>  <QM_Energy>  (1116) 
-10.15

>  <source>  (1116) 
ETAM_MSM

>  <Index>  (1116) 
6856

$$$$
ETAM-pdb3lx2-B-LYS-167:MSM-pdb3lx2-B-MET-158
     RDKit          3D

 20 18  0  0  0  0  0  0  0  0999 V2000
    1.3512    0.8376   -0.0000 C   0  0  0  0  0  0  0  0  0  0  0  0
    1.4713    1.2264    0.9068 H   0  0  0  0  0  0  0  0  0  0  0  0
    1.2662    1.5562   -0.6806 H   0  0  0  0  0  0  0  0  0  0  0  0
    2.2467    0.2623   -0.2347 H   0  0  0  0  0  0  0  0  0  0  0  0
    0.0000    0.0000    0.0000 C   0  0  0  0  0  0  0  0  0  0  0  0
    0.0134   -0.6089   -0.8165 H   0  0  0  0  0  0  0  0  0  0  0  0
    0.0127   -0.6090    0.8163 H   0  0  0  0  0  0  0  0  0  0  0  0
   -1.3512    0.7727    0.0000 N   0  0  0  0  0  4  0  0  0  0  0  0
   -2.0544    0.1428    0.2946 H   0  0  0  0  0  0  0  0  0  0  0  0
   -1.2601    1.5303    0.6286 H   0  0  0  0  0  0  0  0  0  0  0  0
   -1.5134    1.0878   -0.9231 H   0  0  0  0  0  0  0  0  0  0  0  0
    1.2780   -0.7035   -4.5858 C   0  0  0  0  0  0  0  0  0  0  0  0
    0.8173   -1.5537   -4.9311 H   0  0  0  0  0  0  0  0  0  0  0  0
    2.2486   -0.9818   -4.3934 H   0  0  0  0  0  0  0  0  0  0  0  0
    1.2891    0.0265   -5.3951 H   0  0  0  0  0  0  0  0  0  0  0  0
    0.4764   -0.0926   -3.1011 S   0  0  0  0  0  0  0  0  0  0  0  0
   -1.0414    0.6444   -3.7829 C   0  0  0  0  0  0  0  0  0  0  0  0
   -1.7575    0.6037   -3.0910 H   0  0  0  0  0  0  0  0  0  0  0  0
   -0.8559    1.5918   -4.0291 H   0  0  0  0  0  0  0  0  0  0  0  0
   -1.3157    0.1279   -4.5895 H   0  0  0  0  0  0  0  0  0  0  0  0
  1  5  1  0
  5  8  1  0
  1  2  1  0
  1  3  1  0
  1  4  1  0
  5  6  1  0
  5  7  1  0
  8  9  1  0
  8 10  1  0
  8 11  1  0
 12 16  1  0
 16 17  1  0
 12 13  1  0
 12 14  1  0
 12 15  1  0
 17 18  1  0
 17 19  1  0
 17 20  1  0
M  CHG  1   8   1
M  END
>  <PDB_ID>  (1117) 
pdb3lx2

>  <RESIDUE_NAME>  (1117) 
LYS   MET

>  <FRAG_NAME>  (1117) 
ETAM   MSM

>  <FRAG_ATOM_NUM>  (1117) 
fragi: 11  fragj: 9

>  <atom.prop.CHAIN_ID>  (1117) 
A A A A A A A A A A A Z Z Z Z Z Z Z Z Z

>  <atom.prop.IS_HEAVY_ATOM>  (1117) 
1 0 0 0 1 0 0 1 0 0 0 1 0 0 0 1 1 0 0 0

>  <DIFUSE_FUNC_ATOM>  (1117) 
n/a

>  <FINAL_SINGLE_POINT_ENERGY>  (1117) 
0

>  <NONCOV_INTER_ENERGY_QM>  (1117) 
0

>  <FF_Energy>  (1117) 
2.73

>  <QM_Energy>  (1117) 
-5.91

>  <source>  (1117) 
ETAM_MSM

>  <Index>  (1117) 
6857

$$$$
ETAM-pdb3lxm-B-LYS-206:MSM-pdb3lxm-B-MET-202
     RDKit          3D

 20 18  0  0  0  0  0  0  0  0999 V2000
    1.2181    0.8879   -0.0000 C   0  0  0  0  0  0  0  0  0  0  0  0
    1.3023    1.3273   -0.8930 H   0  0  0  0  0  0  0  0  0  0  0  0
    2.0274    0.3311    0.1801 H   0  0  0  0  0  0  0  0  0  0  0  0
    1.1624    1.6673    0.7599 H   0  0  0  0  0  0  0  0  0  0  0  0
    0.0000    0.0000    0.0000 C   0  0  0  0  0  0  0  0  0  0  0  0
    0.0140   -0.5742   -0.8163 H   0  0  0  0  0  0  0  0  0  0  0  0
    0.0136   -0.5749    0.8162 H   0  0  0  0  0  0  0  0  0  0  0  0
   -1.2181    0.8267    0.0000 N   0  0  0  0  0  4  0  0  0  0  0  0
   -1.2463    1.3901    0.8291 H   0  0  0  0  0  0  0  0  0  0  0  0
   -1.2218    1.4251   -0.8038 H   0  0  0  0  0  0  0  0  0  0  0  0
   -2.0286    0.2375   -0.0241 H   0  0  0  0  0  0  0  0  0  0  0  0
    0.1631    4.3701   -4.3914 C   0  0  0  0  0  0  0  0  0  0  0  0
   -0.5254    4.0607   -5.1252 H   0  0  0  0  0  0  0  0  0  0  0  0
    0.7995    4.9980   -4.9474 H   0  0  0  0  0  0  0  0  0  0  0  0
   -0.3722    4.9900   -3.6723 H   0  0  0  0  0  0  0  0  0  0  0  0
    1.1056    2.9215   -3.7789 S   0  0  0  0  0  0  0  0  0  0  0  0
   -0.1133    2.2186   -2.6735 C   0  0  0  0  0  0  0  0  0  0  0  0
   -0.2472    1.2503   -2.8921 H   0  0  0  0  0  0  0  0  0  0  0  0
    0.2022    2.3037   -1.7267 H   0  0  0  0  0  0  0  0  0  0  0  0
   -0.9827    2.7054   -2.7773 H   0  0  0  0  0  0  0  0  0  0  0  0
  1  5  1  0
  5  8  1  0
  1  2  1  0
  1  3  1  0
  1  4  1  0
  5  6  1  0
  5  7  1  0
  8  9  1  0
  8 10  1  0
  8 11  1  0
 12 16  1  0
 16 17  1  0
 12 13  1  0
 12 14  1  0
 12 15  1  0
 17 18  1  0
 17 19  1  0
 17 20  1  0
M  CHG  1   8   1
M  END
>  <PDB_ID>  (1118) 
pdb3lxm

>  <RESIDUE_NAME>  (1118) 
LYS   MET

>  <FRAG_NAME>  (1118) 
ETAM   MSM

>  <FRAG_ATOM_NUM>  (1118) 
fragi: 11  fragj: 9

>  <atom.prop.CHAIN_ID>  (1118) 
A A A A A A A A A A A Z Z Z Z Z Z Z Z Z

>  <atom.prop.IS_HEAVY_ATOM>  (1118) 
1 0 0 0 1 0 0 1 0 0 0 1 0 0 0 1 1 0 0 0

>  <DIFUSE_FUNC_ATOM>  (1118) 
n/a

>  <FINAL_SINGLE_POINT_ENERGY>  (1118) 
0

>  <NONCOV_INTER_ENERGY_QM>  (1118) 
0

>  <FF_Energy>  (1118) 
10.06

>  <QM_Energy>  (1118) 
1.59

>  <source>  (1118) 
ETAM_MSM

>  <Index>  (1118) 
6867

$$$$
ETAM-pdb4j1q-A-LYS-138:MSM-pdb4j1q-A-MET-132
     RDKit          3D

 20 18  0  0  0  0  0  0  0  0999 V2000
    1.2476    0.8761   -0.0000 C   0  0  0  0  0  0  0  0  0  0  0  0
    2.0405    0.2939    0.1139 H   0  0  0  0  0  0  0  0  0  0  0  0
    1.1735    1.5269    0.7420 H   0  0  0  0  0  0  0  0  0  0  0  0
    1.3322    1.4152   -0.9435 H   0  0  0  0  0  0  0  0  0  0  0  0
    0.0000    0.0000    0.0000 C   0  0  0  0  0  0  0  0  0  0  0  0
    0.0150   -0.5836   -0.8164 H   0  0  0  0  0  0  0  0  0  0  0  0
    0.0147   -0.5838    0.8161 H   0  0  0  0  0  0  0  0  0  0  0  0
   -1.2476    0.8103   -0.0000 N   0  0  0  0  0  4  0  0  0  0  0  0
   -1.0672    1.6981    0.4240 H   0  0  0  0  0  0  0  0  0  0  0  0
   -1.5555    0.9451   -0.9413 H   0  0  0  0  0  0  0  0  0  0  0  0
   -1.9556    0.3301    0.5172 H   0  0  0  0  0  0  0  0  0  0  0  0
    1.2584   -1.9632    4.3165 C   0  0  0  0  0  0  0  0  0  0  0  0
    1.8955   -2.4512    3.6850 H   0  0  0  0  0  0  0  0  0  0  0  0
    0.4588   -2.5849    4.4483 H   0  0  0  0  0  0  0  0  0  0  0  0
    1.7565   -1.8224    5.2758 H   0  0  0  0  0  0  0  0  0  0  0  0
    0.7385   -0.3958    3.6140 S   0  0  0  0  0  0  0  0  0  0  0  0
   -0.8966   -0.8456    3.0479 C   0  0  0  0  0  0  0  0  0  0  0  0
   -1.0212   -0.5425    2.1017 H   0  0  0  0  0  0  0  0  0  0  0  0
   -1.0084   -1.8401    3.0932 H   0  0  0  0  0  0  0  0  0  0  0  0
   -1.5869   -0.4091    3.6281 H   0  0  0  0  0  0  0  0  0  0  0  0
  1  5  1  0
  5  8  1  0
  1  2  1  0
  1  3  1  0
  1  4  1  0
  5  6  1  0
  5  7  1  0
  8  9  1  0
  8 10  1  0
  8 11  1  0
 12 16  1  0
 16 17  1  0
 12 13  1  0
 12 14  1  0
 12 15  1  0
 17 18  1  0
 17 19  1  0
 17 20  1  0
M  CHG  1   8   1
M  END
>  <PDB_ID>  (1119) 
pdb4j1q

>  <RESIDUE_NAME>  (1119) 
LYS   MET

>  <FRAG_NAME>  (1119) 
ETAM   MSM

>  <FRAG_ATOM_NUM>  (1119) 
fragi: 11  fragj: 9

>  <atom.prop.CHAIN_ID>  (1119) 
A A A A A A A A A A A Z Z Z Z Z Z Z Z Z

>  <atom.prop.IS_HEAVY_ATOM>  (1119) 
1 0 0 0 1 0 0 1 0 0 0 1 0 0 0 1 1 0 0 0

>  <DIFUSE_FUNC_ATOM>  (1119) 
n/a

>  <FINAL_SINGLE_POINT_ENERGY>  (1119) 
0

>  <NONCOV_INTER_ENERGY_QM>  (1119) 
0

>  <FF_Energy>  (1119) 
11.61

>  <QM_Energy>  (1119) 
-1.43

>  <source>  (1119) 
ETAM_MSM

>  <Index>  (1119) 
6896

$$$$
ETAM-pdb4ixs-B-LYS-259:MSM-pdb4ixs-B-MET-36
     RDKit          3D

 20 18  0  0  0  0  0  0  0  0999 V2000
    1.2058    0.9166   -0.0000 C   0  0  0  0  0  0  0  0  0  0  0  0
    1.0256    1.6716   -0.6148 H   0  0  0  0  0  0  0  0  0  0  0  0
    1.9950    0.3965   -0.2946 H   0  0  0  0  0  0  0  0  0  0  0  0
    1.3723    1.2974    1.0076 H   0  0  0  0  0  0  0  0  0  0  0  0
    0.0000    0.0000    0.0000 C   0  0  0  0  0  0  0  0  0  0  0  0
    0.0365   -0.5732   -0.8162 H   0  0  0  0  0  0  0  0  0  0  0  0
    0.0365   -0.5740    0.8159 H   0  0  0  0  0  0  0  0  0  0  0  0
   -1.2058    0.7994    0.0000 N   0  0  0  0  0  4  0  0  0  0  0  0
   -1.1975    1.4498    0.7683 H   0  0  0  0  0  0  0  0  0  0  0  0
   -1.2827    1.3207   -0.8585 H   0  0  0  0  0  0  0  0  0  0  0  0
   -2.0185    0.2114    0.0893 H   0  0  0  0  0  0  0  0  0  0  0  0
    0.1261   -2.5947   -4.4956 C   0  0  0  0  0  0  0  0  0  0  0  0
    0.4121   -3.5761   -4.6275 H   0  0  0  0  0  0  0  0  0  0  0  0
    0.8917   -2.0410   -4.9064 H   0  0  0  0  0  0  0  0  0  0  0  0
   -0.7589   -2.4306   -5.1104 H   0  0  0  0  0  0  0  0  0  0  0  0
   -0.0802   -2.2082   -2.7274 S   0  0  0  0  0  0  0  0  0  0  0  0
    1.4314   -2.8763   -1.9380 C   0  0  0  0  0  0  0  0  0  0  0  0
    1.9413   -3.3925   -2.6182 H   0  0  0  0  0  0  0  0  0  0  0  0
    1.9748   -2.1145   -1.6013 H   0  0  0  0  0  0  0  0  0  0  0  0
    1.1593   -3.4675   -1.1857 H   0  0  0  0  0  0  0  0  0  0  0  0
  1  5  1  0
  5  8  1  0
  1  2  1  0
  1  3  1  0
  1  4  1  0
  5  6  1  0
  5  7  1  0
  8  9  1  0
  8 10  1  0
  8 11  1  0
 12 16  1  0
 16 17  1  0
 12 13  1  0
 12 14  1  0
 12 15  1  0
 17 18  1  0
 17 19  1  0
 17 20  1  0
M  CHG  1   8   1
M  END
>  <PDB_ID>  (1120) 
pdb4ixs

>  <RESIDUE_NAME>  (1120) 
LYS   MET

>  <FRAG_NAME>  (1120) 
ETAM   MSM

>  <FRAG_ATOM_NUM>  (1120) 
fragi: 11  fragj: 9

>  <atom.prop.CHAIN_ID>  (1120) 
A A A A A A A A A A A Z Z Z Z Z Z Z Z Z

>  <atom.prop.IS_HEAVY_ATOM>  (1120) 
1 0 0 0 1 0 0 1 0 0 0 1 0 0 0 1 1 0 0 0

>  <DIFUSE_FUNC_ATOM>  (1120) 
n/a

>  <FINAL_SINGLE_POINT_ENERGY>  (1120) 
0

>  <NONCOV_INTER_ENERGY_QM>  (1120) 
0

>  <FF_Energy>  (1120) 
-1.95

>  <QM_Energy>  (1120) 
-8.2

>  <source>  (1120) 
ETAM_MSM

>  <Index>  (1120) 
6900

$$$$
ETAM-pdb4irl-C-LYS-423:MSM-pdb4irl-C-MET-394
     RDKit          3D

 20 18  0  0  0  0  0  0  0  0999 V2000
    1.2299    0.8919   -0.0000 C   0  0  0  0  0  0  0  0  0  0  0  0
    2.0385    0.3304    0.1202 H   0  0  0  0  0  0  0  0  0  0  0  0
    1.1492    1.5555    0.7320 H   0  0  0  0  0  0  0  0  0  0  0  0
    1.3305    1.4335   -0.9405 H   0  0  0  0  0  0  0  0  0  0  0  0
    0.0000    0.0000    0.0000 C   0  0  0  0  0  0  0  0  0  0  0  0
    0.0054   -0.5650   -0.8163 H   0  0  0  0  0  0  0  0  0  0  0  0
    0.0049   -0.5651    0.8162 H   0  0  0  0  0  0  0  0  0  0  0  0
   -1.2299    0.8521   -0.0000 N   0  0  0  0  0  4  0  0  0  0  0  0
   -0.9871    1.7781   -0.2812 H   0  0  0  0  0  0  0  0  0  0  0  0
   -1.8942    0.4690   -0.6385 H   0  0  0  0  0  0  0  0  0  0  0  0
   -1.6164    0.8688    0.9203 H   0  0  0  0  0  0  0  0  0  0  0  0
   -0.4153    1.3301    4.3801 C   0  0  0  0  0  0  0  0  0  0  0  0
   -0.9835    0.4986    4.1849 H   0  0  0  0  0  0  0  0  0  0  0  0
   -0.7349    1.6722    5.2927 H   0  0  0  0  0  0  0  0  0  0  0  0
    0.6247    1.0183    4.4760 H   0  0  0  0  0  0  0  0  0  0  0  0
   -0.6561    2.5841    3.1059 S   0  0  0  0  0  0  0  0  0  0  0  0
   -1.4654    3.8572    4.0800 C   0  0  0  0  0  0  0  0  0  0  0  0
   -1.3295    3.6688    5.0530 H   0  0  0  0  0  0  0  0  0  0  0  0
   -1.0728    4.7497    3.8547 H   0  0  0  0  0  0  0  0  0  0  0  0
   -2.4440    3.8624    3.8743 H   0  0  0  0  0  0  0  0  0  0  0  0
  1  5  1  0
  5  8  1  0
  1  2  1  0
  1  3  1  0
  1  4  1  0
  5  6  1  0
  5  7  1  0
  8  9  1  0
  8 10  1  0
  8 11  1  0
 12 16  1  0
 16 17  1  0
 12 13  1  0
 12 14  1  0
 12 15  1  0
 17 18  1  0
 17 19  1  0
 17 20  1  0
M  CHG  1   8   1
M  END
>  <PDB_ID>  (1121) 
pdb4irl

>  <RESIDUE_NAME>  (1121) 
LYS   MET

>  <FRAG_NAME>  (1121) 
ETAM   MSM

>  <FRAG_ATOM_NUM>  (1121) 
fragi: 11  fragj: 9

>  <atom.prop.CHAIN_ID>  (1121) 
A A A A A A A A A A A Z Z Z Z Z Z Z Z Z

>  <atom.prop.IS_HEAVY_ATOM>  (1121) 
1 0 0 0 1 0 0 1 0 0 0 1 0 0 0 1 1 0 0 0

>  <DIFUSE_FUNC_ATOM>  (1121) 
n/a

>  <FINAL_SINGLE_POINT_ENERGY>  (1121) 
0

>  <NONCOV_INTER_ENERGY_QM>  (1121) 
0

>  <FF_Energy>  (1121) 
-5.54

>  <QM_Energy>  (1121) 
-13.0

>  <source>  (1121) 
ETAM_MSM

>  <Index>  (1121) 
6902

$$$$
ETAM-pdb4ixh-C-LYS-210:MSM-pdb4ixh-C-MET-273
     RDKit          3D

 20 18  0  0  0  0  0  0  0  0999 V2000
    1.2337    0.8938    0.0000 C   0  0  0  0  0  0  0  0  0  0  0  0
    1.1436    1.5565   -0.7331 H   0  0  0  0  0  0  0  0  0  0  0  0
    2.0354    0.3252   -0.1370 H   0  0  0  0  0  0  0  0  0  0  0  0
    1.3306    1.4240    0.9475 H   0  0  0  0  0  0  0  0  0  0  0  0
    0.0000    0.0000    0.0000 C   0  0  0  0  0  0  0  0  0  0  0  0
    0.0188   -0.5748   -0.8162 H   0  0  0  0  0  0  0  0  0  0  0  0
    0.0187   -0.5749    0.8166 H   0  0  0  0  0  0  0  0  0  0  0  0
   -1.2337    0.8186   -0.0000 N   0  0  0  0  0  4  0  0  0  0  0  0
   -1.3626    1.2312    0.9028 H   0  0  0  0  0  0  0  0  0  0  0  0
   -1.1564    1.5419   -0.6879 H   0  0  0  0  0  0  0  0  0  0  0  0
   -2.0213    0.2390   -0.2153 H   0  0  0  0  0  0  0  0  0  0  0  0
    1.3446    2.3291   -4.7538 C   0  0  0  0  0  0  0  0  0  0  0  0
    0.8321    3.0667   -5.2526 H   0  0  0  0  0  0  0  0  0  0  0  0
    1.7049    1.7067   -5.4877 H   0  0  0  0  0  0  0  0  0  0  0  0
    2.1881    2.7810   -4.2318 H   0  0  0  0  0  0  0  0  0  0  0  0
    0.2311    1.4237   -3.6499 S   0  0  0  0  0  0  0  0  0  0  0  0
    0.8009   -0.2632   -3.9119 C   0  0  0  0  0  0  0  0  0  0  0  0
    1.4540   -0.5072   -3.1956 H   0  0  0  0  0  0  0  0  0  0  0  0
    0.0199   -0.8864   -3.8792 H   0  0  0  0  0  0  0  0  0  0  0  0
    1.2443   -0.3285   -4.8059 H   0  0  0  0  0  0  0  0  0  0  0  0
  1  5  1  0
  5  8  1  0
  1  2  1  0
  1  3  1  0
  1  4  1  0
  5  6  1  0
  5  7  1  0
  8  9  1  0
  8 10  1  0
  8 11  1  0
 12 16  1  0
 16 17  1  0
 12 13  1  0
 12 14  1  0
 12 15  1  0
 17 18  1  0
 17 19  1  0
 17 20  1  0
M  CHG  1   8   1
M  END
>  <PDB_ID>  (1122) 
pdb4ixh

>  <RESIDUE_NAME>  (1122) 
LYS   MET

>  <FRAG_NAME>  (1122) 
ETAM   MSM

>  <FRAG_ATOM_NUM>  (1122) 
fragi: 11  fragj: 9

>  <atom.prop.CHAIN_ID>  (1122) 
A A A A A A A A A A A Z Z Z Z Z Z Z Z Z

>  <atom.prop.IS_HEAVY_ATOM>  (1122) 
1 0 0 0 1 0 0 1 0 0 0 1 0 0 0 1 1 0 0 0

>  <DIFUSE_FUNC_ATOM>  (1122) 
n/a

>  <FINAL_SINGLE_POINT_ENERGY>  (1122) 
0

>  <NONCOV_INTER_ENERGY_QM>  (1122) 
0

>  <FF_Energy>  (1122) 
-4.98

>  <QM_Energy>  (1122) 
-10.02

>  <source>  (1122) 
ETAM_MSM

>  <Index>  (1122) 
6905

$$$$
ETAM-pdb4j6g-B-LYS-137:MSM-pdb4j6g-B-MET-239
     RDKit          3D

 20 18  0  0  0  0  0  0  0  0999 V2000
    1.2477    0.9047   -0.0000 C   0  0  0  0  0  0  0  0  0  0  0  0
    1.6187    0.9214    0.9122 H   0  0  0  0  0  0  0  0  0  0  0  0
    0.9802    1.8011   -0.3062 H   0  0  0  0  0  0  0  0  0  0  0  0
    1.9973    0.5028   -0.6818 H   0  0  0  0  0  0  0  0  0  0  0  0
    0.0000    0.0000    0.0000 C   0  0  0  0  0  0  0  0  0  0  0  0
    0.0220   -0.5708   -0.8158 H   0  0  0  0  0  0  0  0  0  0  0  0
    0.0218   -0.5704    0.8165 H   0  0  0  0  0  0  0  0  0  0  0  0
   -1.2477    0.8218    0.0000 N   0  0  0  0  0  4  0  0  0  0  0  0
   -1.0438    1.7299   -0.3625 H   0  0  0  0  0  0  0  0  0  0  0  0
   -1.9346    0.3766   -0.5723 H   0  0  0  0  0  0  0  0  0  0  0  0
   -1.5894    0.9012    0.9353 H   0  0  0  0  0  0  0  0  0  0  0  0
   -1.9764    3.6638   -4.3922 C   0  0  0  0  0  0  0  0  0  0  0  0
   -2.9976    3.7131   -4.3133 H   0  0  0  0  0  0  0  0  0  0  0  0
   -1.7883    3.4288   -5.3731 H   0  0  0  0  0  0  0  0  0  0  0  0
   -1.5799    4.6620   -4.2061 H   0  0  0  0  0  0  0  0  0  0  0  0
   -1.2996    2.4064   -3.2838 S   0  0  0  0  0  0  0  0  0  0  0  0
    0.3539    2.4036   -3.9141 C   0  0  0  0  0  0  0  0  0  0  0  0
    0.8403    1.5799   -3.6067 H   0  0  0  0  0  0  0  0  0  0  0  0
    0.3420    2.4162   -4.9192 H   0  0  0  0  0  0  0  0  0  0  0  0
    0.8514    3.2135   -3.5869 H   0  0  0  0  0  0  0  0  0  0  0  0
  1  5  1  0
  5  8  1  0
  1  2  1  0
  1  3  1  0
  1  4  1  0
  5  6  1  0
  5  7  1  0
  8  9  1  0
  8 10  1  0
  8 11  1  0
 12 16  1  0
 16 17  1  0
 12 13  1  0
 12 14  1  0
 12 15  1  0
 17 18  1  0
 17 19  1  0
 17 20  1  0
M  CHG  1   8   1
M  END
>  <PDB_ID>  (1123) 
pdb4j6g

>  <RESIDUE_NAME>  (1123) 
LYS   MET

>  <FRAG_NAME>  (1123) 
ETAM   MSM

>  <FRAG_ATOM_NUM>  (1123) 
fragi: 11  fragj: 9

>  <atom.prop.CHAIN_ID>  (1123) 
A A A A A A A A A A A Z Z Z Z Z Z Z Z Z

>  <atom.prop.IS_HEAVY_ATOM>  (1123) 
1 0 0 0 1 0 0 1 0 0 0 1 0 0 0 1 1 0 0 0

>  <DIFUSE_FUNC_ATOM>  (1123) 
n/a

>  <FINAL_SINGLE_POINT_ENERGY>  (1123) 
0

>  <NONCOV_INTER_ENERGY_QM>  (1123) 
0

>  <FF_Energy>  (1123) 
-5.51

>  <QM_Energy>  (1123) 
-11.65

>  <source>  (1123) 
ETAM_MSM

>  <Index>  (1123) 
6920

$$$$
ETAM-pdb4j7o-A-LYS-343:MSM-pdb4j7o-A-MET-314
     RDKit          3D

 20 18  0  0  0  0  0  0  0  0999 V2000
    1.2375    0.8747    0.0000 C   0  0  0  0  0  0  0  0  0  0  0  0
    1.0961    1.6267   -0.6377 H   0  0  0  0  0  0  0  0  0  0  0  0
    2.0160    0.3239   -0.2869 H   0  0  0  0  0  0  0  0  0  0  0  0
    1.4388    1.2843    0.9899 H   0  0  0  0  0  0  0  0  0  0  0  0
    0.0000    0.0000    0.0000 C   0  0  0  0  0  0  0  0  0  0  0  0
    0.0122   -0.5820   -0.8156 H   0  0  0  0  0  0  0  0  0  0  0  0
    0.0116   -0.5817    0.8161 H   0  0  0  0  0  0  0  0  0  0  0  0
   -1.2375    0.8169   -0.0000 N   0  0  0  0  0  4  0  0  0  0  0  0
   -2.0364    0.2145    0.0185 H   0  0  0  0  0  0  0  0  0  0  0  0
   -1.2477    1.4082    0.8077 H   0  0  0  0  0  0  0  0  0  0  0  0
   -1.2660    1.3809   -0.8261 H   0  0  0  0  0  0  0  0  0  0  0  0
   -3.2472    5.0561    2.2011 C   0  0  0  0  0  0  0  0  0  0  0  0
   -3.1521    5.6189    3.0553 H   0  0  0  0  0  0  0  0  0  0  0  0
   -4.1408    4.5596    2.3025 H   0  0  0  0  0  0  0  0  0  0  0  0
   -3.3241    5.7336    1.3507 H   0  0  0  0  0  0  0  0  0  0  0  0
   -1.8855    3.8943    2.0451 S   0  0  0  0  0  0  0  0  0  0  0  0
   -0.4678    4.9894    2.0029 C   0  0  0  0  0  0  0  0  0  0  0  0
   -0.7550    5.9192    2.2348 H   0  0  0  0  0  0  0  0  0  0  0  0
    0.2159    4.6790    2.6650 H   0  0  0  0  0  0  0  0  0  0  0  0
   -0.0672    4.9848    1.0858 H   0  0  0  0  0  0  0  0  0  0  0  0
  1  5  1  0
  5  8  1  0
  1  2  1  0
  1  3  1  0
  1  4  1  0
  5  6  1  0
  5  7  1  0
  8  9  1  0
  8 10  1  0
  8 11  1  0
 12 16  1  0
 16 17  1  0
 12 13  1  0
 12 14  1  0
 12 15  1  0
 17 18  1  0
 17 19  1  0
 17 20  1  0
M  CHG  1   8   1
M  END
>  <PDB_ID>  (1124) 
pdb4j7o

>  <RESIDUE_NAME>  (1124) 
LYS   MET

>  <FRAG_NAME>  (1124) 
ETAM   MSM

>  <FRAG_ATOM_NUM>  (1124) 
fragi: 11  fragj: 9

>  <atom.prop.CHAIN_ID>  (1124) 
A A A A A A A A A A A Z Z Z Z Z Z Z Z Z

>  <atom.prop.IS_HEAVY_ATOM>  (1124) 
1 0 0 0 1 0 0 1 0 0 0 1 0 0 0 1 1 0 0 0

>  <DIFUSE_FUNC_ATOM>  (1124) 
n/a

>  <FINAL_SINGLE_POINT_ENERGY>  (1124) 
0

>  <NONCOV_INTER_ENERGY_QM>  (1124) 
0

>  <FF_Energy>  (1124) 
-5.05

>  <QM_Energy>  (1124) 
-11.89

>  <source>  (1124) 
ETAM_MSM

>  <Index>  (1124) 
6925

$$$$
ETAM-pdb3m5r-E-LYS-110:MSM-pdb3m5r-D-MET-124
     RDKit          3D

 20 18  0  0  0  0  0  0  0  0999 V2000
    1.2540    0.8667   -0.0000 C   0  0  0  0  0  0  0  0  0  0  0  0
    0.9759    1.8196   -0.0776 H   0  0  0  0  0  0  0  0  0  0  0  0
    1.8138    0.6082   -0.7827 H   0  0  0  0  0  0  0  0  0  0  0  0
    1.8333    0.7362    0.9140 H   0  0  0  0  0  0  0  0  0  0  0  0
    0.0000    0.0000    0.0000 C   0  0  0  0  0  0  0  0  0  0  0  0
    0.0089   -0.5853   -0.8160 H   0  0  0  0  0  0  0  0  0  0  0  0
    0.0089   -0.5850    0.8162 H   0  0  0  0  0  0  0  0  0  0  0  0
   -1.2540    0.8166    0.0000 N   0  0  0  0  0  4  0  0  0  0  0  0
   -1.4513    1.1131   -0.9322 H   0  0  0  0  0  0  0  0  0  0  0  0
   -2.0070    0.2594    0.3439 H   0  0  0  0  0  0  0  0  0  0  0  0
   -1.1261    1.6124    0.5885 H   0  0  0  0  0  0  0  0  0  0  0  0
   -5.8696    1.3787   -0.3237 C   0  0  0  0  0  0  0  0  0  0  0  0
   -5.2292    1.7272   -1.0413 H   0  0  0  0  0  0  0  0  0  0  0  0
   -6.5535    2.1241   -0.1737 H   0  0  0  0  0  0  0  0  0  0  0  0
   -6.3849    0.4987   -0.7085 H   0  0  0  0  0  0  0  0  0  0  0  0
   -4.9783    1.0196    1.2013 S   0  0  0  0  0  0  0  0  0  0  0  0
   -4.3899    2.6593    1.6259 C   0  0  0  0  0  0  0  0  0  0  0  0
   -4.3902    2.7679    2.6208 H   0  0  0  0  0  0  0  0  0  0  0  0
   -3.4596    2.7812    1.2780 H   0  0  0  0  0  0  0  0  0  0  0  0
   -4.9908    3.3477    1.2168 H   0  0  0  0  0  0  0  0  0  0  0  0
  1  5  1  0
  5  8  1  0
  1  2  1  0
  1  3  1  0
  1  4  1  0
  5  6  1  0
  5  7  1  0
  8  9  1  0
  8 10  1  0
  8 11  1  0
 12 16  1  0
 16 17  1  0
 12 13  1  0
 12 14  1  0
 12 15  1  0
 17 18  1  0
 17 19  1  0
 17 20  1  0
M  CHG  1   8   1
M  END
>  <PDB_ID>  (1125) 
pdb3m5r

>  <RESIDUE_NAME>  (1125) 
LYS   MET

>  <FRAG_NAME>  (1125) 
ETAM   MSM

>  <FRAG_ATOM_NUM>  (1125) 
fragi: 11  fragj: 9

>  <atom.prop.CHAIN_ID>  (1125) 
A A A A A A A A A A A Z Z Z Z Z Z Z Z Z

>  <atom.prop.IS_HEAVY_ATOM>  (1125) 
1 0 0 0 1 0 0 1 0 0 0 1 0 0 0 1 1 0 0 0

>  <DIFUSE_FUNC_ATOM>  (1125) 
n/a

>  <FINAL_SINGLE_POINT_ENERGY>  (1125) 
0

>  <NONCOV_INTER_ENERGY_QM>  (1125) 
0

>  <FF_Energy>  (1125) 
-2.69

>  <QM_Energy>  (1125) 
-8.11

>  <source>  (1125) 
ETAM_MSM

>  <Index>  (1125) 
6928

$$$$
ETAM-pdb3max-C-LYS-252:MSM-pdb3max-C-MET-256
     RDKit          3D

 20 18  0  0  0  0  0  0  0  0999 V2000
    1.2719    0.8605    0.0000 C   0  0  0  0  0  0  0  0  0  0  0  0
    1.2358    1.4705    0.7779 H   0  0  0  0  0  0  0  0  0  0  0  0
    1.3073    1.3643   -0.8505 H   0  0  0  0  0  0  0  0  0  0  0  0
    2.1591    0.2325    0.0807 H   0  0  0  0  0  0  0  0  0  0  0  0
    0.0000    0.0000    0.0000 C   0  0  0  0  0  0  0  0  0  0  0  0
    0.0077   -0.5886   -0.8165 H   0  0  0  0  0  0  0  0  0  0  0  0
    0.0074   -0.5887    0.8159 H   0  0  0  0  0  0  0  0  0  0  0  0
   -1.2719    0.8121    0.0000 N   0  0  0  0  0  4  0  0  0  0  0  0
   -1.0505    1.7557    0.2312 H   0  0  0  0  0  0  0  0  0  0  0  0
   -1.6803    0.7686   -0.9079 H   0  0  0  0  0  0  0  0  0  0  0  0
   -1.8966    0.4305    0.6761 H   0  0  0  0  0  0  0  0  0  0  0  0
    0.2473   -1.0043    3.6580 C   0  0  0  0  0  0  0  0  0  0  0  0
    0.8784   -0.2525    3.3841 H   0  0  0  0  0  0  0  0  0  0  0  0
    0.3445   -1.7346    2.9546 H   0  0  0  0  0  0  0  0  0  0  0  0
    0.5659   -1.3983    4.6231 H   0  0  0  0  0  0  0  0  0  0  0  0
   -1.4597   -0.4086    3.7243 S   0  0  0  0  0  0  0  0  0  0  0  0
   -2.3288   -1.9607    3.9896 C   0  0  0  0  0  0  0  0  0  0  0  0
   -2.0135   -2.3763    4.8424 H   0  0  0  0  0  0  0  0  0  0  0  0
   -3.3116   -1.7854    4.0469 H   0  0  0  0  0  0  0  0  0  0  0  0
   -2.1429   -2.5799    3.2272 H   0  0  0  0  0  0  0  0  0  0  0  0
  1  5  1  0
  5  8  1  0
  1  2  1  0
  1  3  1  0
  1  4  1  0
  5  6  1  0
  5  7  1  0
  8  9  1  0
  8 10  1  0
  8 11  1  0
 12 16  1  0
 16 17  1  0
 12 13  1  0
 12 14  1  0
 12 15  1  0
 17 18  1  0
 17 19  1  0
 17 20  1  0
M  CHG  1   8   1
M  END
>  <PDB_ID>  (1126) 
pdb3max

>  <RESIDUE_NAME>  (1126) 
LYS   MET

>  <FRAG_NAME>  (1126) 
ETAM   MSM

>  <FRAG_ATOM_NUM>  (1126) 
fragi: 11  fragj: 9

>  <atom.prop.CHAIN_ID>  (1126) 
A A A A A A A A A A A Z Z Z Z Z Z Z Z Z

>  <atom.prop.IS_HEAVY_ATOM>  (1126) 
1 0 0 0 1 0 0 1 0 0 0 1 0 0 0 1 1 0 0 0

>  <DIFUSE_FUNC_ATOM>  (1126) 
n/a

>  <FINAL_SINGLE_POINT_ENERGY>  (1126) 
0

>  <NONCOV_INTER_ENERGY_QM>  (1126) 
0

>  <FF_Energy>  (1126) 
-4.18

>  <QM_Energy>  (1126) 
-10.73

>  <source>  (1126) 
ETAM_MSM

>  <Index>  (1126) 
6950

$$$$
ETAM-pdb3mdy-D-LYS-53:MSM-pdb3mdy-D-MET-50
     RDKit          3D

 20 18  0  0  0  0  0  0  0  0999 V2000
    1.2837    0.8783   -0.0000 C   0  0  0  0  0  0  0  0  0  0  0  0
    1.3003    1.3926   -0.8362 H   0  0  0  0  0  0  0  0  0  0  0  0
    2.0585    0.2841    0.0934 H   0  0  0  0  0  0  0  0  0  0  0  0
    1.2540    1.5669    0.8445 H   0  0  0  0  0  0  0  0  0  0  0  0
    0.0000    0.0000    0.0000 C   0  0  0  0  0  0  0  0  0  0  0  0
    0.0270   -0.5929   -0.8162 H   0  0  0  0  0  0  0  0  0  0  0  0
    0.0265   -0.5923    0.8162 H   0  0  0  0  0  0  0  0  0  0  0  0
   -1.2837    0.7813    0.0000 N   0  0  0  0  0  4  0  0  0  0  0  0
   -1.9629    0.2896    0.5391 H   0  0  0  0  0  0  0  0  0  0  0  0
   -1.1173    1.6798    0.4004 H   0  0  0  0  0  0  0  0  0  0  0  0
   -1.6023    0.8812   -0.9400 H   0  0  0  0  0  0  0  0  0  0  0  0
   -1.7616    3.3358    3.5958 C   0  0  0  0  0  0  0  0  0  0  0  0
   -1.1672    2.6746    4.1243 H   0  0  0  0  0  0  0  0  0  0  0  0
   -2.4629    3.6544    4.2867 H   0  0  0  0  0  0  0  0  0  0  0  0
   -1.1457    4.1938    3.3263 H   0  0  0  0  0  0  0  0  0  0  0  0
   -2.5721    2.4955    2.2037 S   0  0  0  0  0  0  0  0  0  0  0  0
   -3.5353    3.8354    1.4916 C   0  0  0  0  0  0  0  0  0  0  0  0
   -4.1698    3.4650    0.8127 H   0  0  0  0  0  0  0  0  0  0  0  0
   -4.0514    4.2955    2.2145 H   0  0  0  0  0  0  0  0  0  0  0  0
   -2.9205    4.4902    1.0514 H   0  0  0  0  0  0  0  0  0  0  0  0
  1  5  1  0
  5  8  1  0
  1  2  1  0
  1  3  1  0
  1  4  1  0
  5  6  1  0
  5  7  1  0
  8  9  1  0
  8 10  1  0
  8 11  1  0
 12 16  1  0
 16 17  1  0
 12 13  1  0
 12 14  1  0
 12 15  1  0
 17 18  1  0
 17 19  1  0
 17 20  1  0
M  CHG  1   8   1
M  END
>  <PDB_ID>  (1127) 
pdb3mdy

>  <RESIDUE_NAME>  (1127) 
LYS   MET

>  <FRAG_NAME>  (1127) 
ETAM   MSM

>  <FRAG_ATOM_NUM>  (1127) 
fragi: 11  fragj: 9

>  <atom.prop.CHAIN_ID>  (1127) 
A A A A A A A A A A A Z Z Z Z Z Z Z Z Z

>  <atom.prop.IS_HEAVY_ATOM>  (1127) 
1 0 0 0 1 0 0 1 0 0 0 1 0 0 0 1 1 0 0 0

>  <DIFUSE_FUNC_ATOM>  (1127) 
n/a

>  <FINAL_SINGLE_POINT_ENERGY>  (1127) 
0

>  <NONCOV_INTER_ENERGY_QM>  (1127) 
0

>  <FF_Energy>  (1127) 
-4.5

>  <QM_Energy>  (1127) 
-14.02

>  <source>  (1127) 
ETAM_MSM

>  <Index>  (1127) 
6963

$$$$
ETAM-pdb4jgi-B-LYS-88:MSM-pdb4jgi-B-MET-74
     RDKit          3D

 20 18  0  0  0  0  0  0  0  0999 V2000
    1.2319    0.8804    0.0000 C   0  0  0  0  0  0  0  0  0  0  0  0
    1.2159    1.4553    0.8162 H   0  0  0  0  0  0  0  0  0  0  0  0
    1.2145    1.4557   -0.8170 H   0  0  0  0  0  0  0  0  0  0  0  0
    2.1554    0.3013   -0.0003 H   0  0  0  0  0  0  0  0  0  0  0  0
    0.0000    0.0000    0.0000 C   0  0  0  0  0  0  0  0  0  0  0  0
    0.0095   -0.5752   -0.8169 H   0  0  0  0  0  0  0  0  0  0  0  0
    0.0098   -0.5761    0.8157 H   0  0  0  0  0  0  0  0  0  0  0  0
   -1.2319    0.8299   -0.0000 N   0  0  0  0  0  4  0  0  0  0  0  0
   -1.1286    1.5797   -0.6531 H   0  0  0  0  0  0  0  0  0  0  0  0
   -2.0135    0.2642   -0.2615 H   0  0  0  0  0  0  0  0  0  0  0  0
   -1.3813    1.2027    0.9158 H   0  0  0  0  0  0  0  0  0  0  0  0
   -5.2209    1.9332    1.6165 C   0  0  0  0  0  0  0  0  0  0  0  0
   -6.0494    2.2731    2.1384 H   0  0  0  0  0  0  0  0  0  0  0  0
   -4.4176    2.2786    2.1730 H   0  0  0  0  0  0  0  0  0  0  0  0
   -5.2188    0.8435    1.6445 H   0  0  0  0  0  0  0  0  0  0  0  0
   -5.1885    2.6083   -0.0275 S   0  0  0  0  0  0  0  0  0  0  0  0
   -3.5769    1.9745   -0.4915 C   0  0  0  0  0  0  0  0  0  0  0  0
   -3.2334    1.3719    0.2302 H   0  0  0  0  0  0  0  0  0  0  0  0
   -3.6526    1.4593   -1.3459 H   0  0  0  0  0  0  0  0  0  0  0  0
   -2.9408    2.7371   -0.6188 H   0  0  0  0  0  0  0  0  0  0  0  0
  1  5  1  0
  5  8  1  0
  1  2  1  0
  1  3  1  0
  1  4  1  0
  5  6  1  0
  5  7  1  0
  8  9  1  0
  8 10  1  0
  8 11  1  0
 12 16  1  0
 16 17  1  0
 12 13  1  0
 12 14  1  0
 12 15  1  0
 17 18  1  0
 17 19  1  0
 17 20  1  0
M  CHG  1   8   1
M  END
>  <PDB_ID>  (1128) 
pdb4jgi

>  <RESIDUE_NAME>  (1128) 
LYS   MET

>  <FRAG_NAME>  (1128) 
ETAM   MSM

>  <FRAG_ATOM_NUM>  (1128) 
fragi: 11  fragj: 9

>  <atom.prop.CHAIN_ID>  (1128) 
A A A A A A A A A A A Z Z Z Z Z Z Z Z Z

>  <atom.prop.IS_HEAVY_ATOM>  (1128) 
1 0 0 0 1 0 0 1 0 0 0 1 0 0 0 1 1 0 0 0

>  <DIFUSE_FUNC_ATOM>  (1128) 
n/a

>  <FINAL_SINGLE_POINT_ENERGY>  (1128) 
0

>  <NONCOV_INTER_ENERGY_QM>  (1128) 
0

>  <FF_Energy>  (1128) 
22.22

>  <QM_Energy>  (1128) 
7.98

>  <source>  (1128) 
ETAM_MSM

>  <Index>  (1128) 
6967

$$$$
ETAM-pdb4jhn-C-LYS-29:MSM-pdb4jhn-C-MET-8
     RDKit          3D

 20 18  0  0  0  0  0  0  0  0999 V2000
    1.2429    0.8656    0.0000 C   0  0  0  0  0  0  0  0  0  0  0  0
    1.1993    1.4877    0.7746 H   0  0  0  0  0  0  0  0  0  0  0  0
    1.2768    1.3765   -0.8524 H   0  0  0  0  0  0  0  0  0  0  0  0
    2.1468    0.2624    0.0853 H   0  0  0  0  0  0  0  0  0  0  0  0
    0.0000    0.0000    0.0000 C   0  0  0  0  0  0  0  0  0  0  0  0
    0.0066   -0.5835   -0.8165 H   0  0  0  0  0  0  0  0  0  0  0  0
    0.0064   -0.5837    0.8169 H   0  0  0  0  0  0  0  0  0  0  0  0
   -1.2429    0.8213   -0.0000 N   0  0  0  0  0  4  0  0  0  0  0  0
   -1.8236    0.5424   -0.7638 H   0  0  0  0  0  0  0  0  0  0  0  0
   -1.7312    0.6820    0.8613 H   0  0  0  0  0  0  0  0  0  0  0  0
   -1.0019    1.7857   -0.0973 H   0  0  0  0  0  0  0  0  0  0  0  0
   -2.2024   -3.0048   -1.3702 C   0  0  0  0  0  0  0  0  0  0  0  0
   -2.5239   -3.9734   -1.5560 H   0  0  0  0  0  0  0  0  0  0  0  0
   -1.1719   -3.0623   -1.4759 H   0  0  0  0  0  0  0  0  0  0  0  0
   -2.5849   -2.3679   -2.1678 H   0  0  0  0  0  0  0  0  0  0  0  0
   -2.6429   -2.4991    0.3122 S   0  0  0  0  0  0  0  0  0  0  0  0
   -4.4234   -2.7021    0.2881 C   0  0  0  0  0  0  0  0  0  0  0  0
   -4.6694   -3.4304   -0.3531 H   0  0  0  0  0  0  0  0  0  0  0  0
   -4.7458   -2.9434    1.2043 H   0  0  0  0  0  0  0  0  0  0  0  0
   -4.8545   -1.8462   -0.0006 H   0  0  0  0  0  0  0  0  0  0  0  0
  1  5  1  0
  5  8  1  0
  1  2  1  0
  1  3  1  0
  1  4  1  0
  5  6  1  0
  5  7  1  0
  8  9  1  0
  8 10  1  0
  8 11  1  0
 12 16  1  0
 16 17  1  0
 12 13  1  0
 12 14  1  0
 12 15  1  0
 17 18  1  0
 17 19  1  0
 17 20  1  0
M  CHG  1   8   1
M  END
>  <PDB_ID>  (1129) 
pdb4jhn

>  <RESIDUE_NAME>  (1129) 
LYS   MET

>  <FRAG_NAME>  (1129) 
ETAM   MSM

>  <FRAG_ATOM_NUM>  (1129) 
fragi: 11  fragj: 9

>  <atom.prop.CHAIN_ID>  (1129) 
A A A A A A A A A A A Z Z Z Z Z Z Z Z Z

>  <atom.prop.IS_HEAVY_ATOM>  (1129) 
1 0 0 0 1 0 0 1 0 0 0 1 0 0 0 1 1 0 0 0

>  <DIFUSE_FUNC_ATOM>  (1129) 
n/a

>  <FINAL_SINGLE_POINT_ENERGY>  (1129) 
0

>  <NONCOV_INTER_ENERGY_QM>  (1129) 
0

>  <FF_Energy>  (1129) 
-4.92

>  <QM_Energy>  (1129) 
-11.69

>  <source>  (1129) 
ETAM_MSM

>  <Index>  (1129) 
6969

$$$$
ETAM-pdb4jgx-B-LYS-122:MSM-pdb4jgx-A-MET-112
     RDKit          3D

 20 18  0  0  0  0  0  0  0  0999 V2000
    1.2388    0.8810   -0.0000 C   0  0  0  0  0  0  0  0  0  0  0  0
    1.0196    1.7385    0.4558 H   0  0  0  0  0  0  0  0  0  0  0  0
    1.5074    1.0507   -0.9431 H   0  0  0  0  0  0  0  0  0  0  0  0
    2.0691    0.4074    0.5238 H   0  0  0  0  0  0  0  0  0  0  0  0
    0.0000    0.0000    0.0000 C   0  0  0  0  0  0  0  0  0  0  0  0
    0.0102   -0.5766   -0.8167 H   0  0  0  0  0  0  0  0  0  0  0  0
    0.0103   -0.5760    0.8161 H   0  0  0  0  0  0  0  0  0  0  0  0
   -1.2388    0.8282   -0.0000 N   0  0  0  0  0  4  0  0  0  0  0  0
   -2.0018    0.2818   -0.3420 H   0  0  0  0  0  0  0  0  0  0  0  0
   -1.4346    1.1308    0.9317 H   0  0  0  0  0  0  0  0  0  0  0  0
   -1.1043    1.6234   -0.5899 H   0  0  0  0  0  0  0  0  0  0  0  0
   -2.6796   -3.9333   -0.0310 C   0  0  0  0  0  0  0  0  0  0  0  0
   -2.9211   -4.7644   -0.6107 H   0  0  0  0  0  0  0  0  0  0  0  0
   -3.2853   -4.0454    0.8090 H   0  0  0  0  0  0  0  0  0  0  0  0
   -1.6431   -4.0402    0.2888 H   0  0  0  0  0  0  0  0  0  0  0  0
   -3.0883   -2.4074   -0.9092 S   0  0  0  0  0  0  0  0  0  0  0  0
   -2.3447   -2.6924   -2.5170 C   0  0  0  0  0  0  0  0  0  0  0  0
   -1.8311   -3.5508   -2.5002 H   0  0  0  0  0  0  0  0  0  0  0  0
   -3.0621   -2.7476   -3.2122 H   0  0  0  0  0  0  0  0  0  0  0  0
   -1.7250   -1.9386   -2.7378 H   0  0  0  0  0  0  0  0  0  0  0  0
  1  5  1  0
  5  8  1  0
  1  2  1  0
  1  3  1  0
  1  4  1  0
  5  6  1  0
  5  7  1  0
  8  9  1  0
  8 10  1  0
  8 11  1  0
 12 16  1  0
 16 17  1  0
 12 13  1  0
 12 14  1  0
 12 15  1  0
 17 18  1  0
 17 19  1  0
 17 20  1  0
M  CHG  1   8   1
M  END
>  <PDB_ID>  (1130) 
pdb4jgx

>  <RESIDUE_NAME>  (1130) 
LYS   MET

>  <FRAG_NAME>  (1130) 
ETAM   MSM

>  <FRAG_ATOM_NUM>  (1130) 
fragi: 11  fragj: 9

>  <atom.prop.CHAIN_ID>  (1130) 
A A A A A A A A A A A Z Z Z Z Z Z Z Z Z

>  <atom.prop.IS_HEAVY_ATOM>  (1130) 
1 0 0 0 1 0 0 1 0 0 0 1 0 0 0 1 1 0 0 0

>  <DIFUSE_FUNC_ATOM>  (1130) 
n/a

>  <FINAL_SINGLE_POINT_ENERGY>  (1130) 
0

>  <NONCOV_INTER_ENERGY_QM>  (1130) 
0

>  <FF_Energy>  (1130) 
-4.72

>  <QM_Energy>  (1130) 
-11.69

>  <source>  (1130) 
ETAM_MSM

>  <Index>  (1130) 
6970

$$$$
ETAM-pdb3mhr-A-LYS-9:MSM-pdb3mhr-A-MET-1
     RDKit          3D

 20 18  0  0  0  0  0  0  0  0999 V2000
    1.2480    0.8750   -0.0000 C   0  0  0  0  0  0  0  0  0  0  0  0
    1.2173    1.4586    0.8073 H   0  0  0  0  0  0  0  0  0  0  0  0
    1.2361    1.4317   -0.8256 H   0  0  0  0  0  0  0  0  0  0  0  0
    2.1559    0.2722    0.0205 H   0  0  0  0  0  0  0  0  0  0  0  0
    0.0000    0.0000    0.0000 C   0  0  0  0  0  0  0  0  0  0  0  0
    0.0323   -0.5981   -0.8161 H   0  0  0  0  0  0  0  0  0  0  0  0
    0.0312   -0.5985    0.8162 H   0  0  0  0  0  0  0  0  0  0  0  0
   -1.2480    0.7672    0.0000 N   0  0  0  0  0  4  0  0  0  0  0  0
   -1.8958    0.3698    0.6557 H   0  0  0  0  0  0  0  0  0  0  0  0
   -1.0655    1.7197    0.2592 H   0  0  0  0  0  0  0  0  0  0  0  0
   -1.6609    0.7515   -0.9142 H   0  0  0  0  0  0  0  0  0  0  0  0
   -1.5349    2.4701    4.2240 C   0  0  0  0  0  0  0  0  0  0  0  0
   -1.2667    1.7464    4.9293 H   0  0  0  0  0  0  0  0  0  0  0  0
   -2.4473    2.1107    3.8608 H   0  0  0  0  0  0  0  0  0  0  0  0
   -1.7223    3.4056    4.7509 H   0  0  0  0  0  0  0  0  0  0  0  0
   -0.3178    2.5348    2.9014 S   0  0  0  0  0  0  0  0  0  0  0  0
   -0.9393    3.7877    1.9193 C   0  0  0  0  0  0  0  0  0  0  0  0
   -0.2022    4.3908    1.5665 H   0  0  0  0  0  0  0  0  0  0  0  0
   -1.4372    3.4228    1.1130 H   0  0  0  0  0  0  0  0  0  0  0  0
   -1.5897    4.3783    2.4282 H   0  0  0  0  0  0  0  0  0  0  0  0
  1  5  1  0
  5  8  1  0
  1  2  1  0
  1  3  1  0
  1  4  1  0
  5  6  1  0
  5  7  1  0
  8  9  1  0
  8 10  1  0
  8 11  1  0
 12 16  1  0
 16 17  1  0
 12 13  1  0
 12 14  1  0
 12 15  1  0
 17 18  1  0
 17 19  1  0
 17 20  1  0
M  CHG  1   8   1
M  END
>  <PDB_ID>  (1131) 
pdb3mhr

>  <RESIDUE_NAME>  (1131) 
LYS   MET

>  <FRAG_NAME>  (1131) 
ETAM   MSM

>  <FRAG_ATOM_NUM>  (1131) 
fragi: 11  fragj: 9

>  <atom.prop.CHAIN_ID>  (1131) 
A A A A A A A A A A A Z Z Z Z Z Z Z Z Z

>  <atom.prop.IS_HEAVY_ATOM>  (1131) 
1 0 0 0 1 0 0 1 0 0 0 1 0 0 0 1 1 0 0 0

>  <DIFUSE_FUNC_ATOM>  (1131) 
n/a

>  <FINAL_SINGLE_POINT_ENERGY>  (1131) 
0

>  <NONCOV_INTER_ENERGY_QM>  (1131) 
0

>  <FF_Energy>  (1131) 
-3.75

>  <QM_Energy>  (1131) 
-9.77

>  <source>  (1131) 
ETAM_MSM

>  <Index>  (1131) 
6973

$$$$
ETAM-pdb4jle-B-LYS-160:MSM-pdb4jle-B-MET-156
     RDKit          3D

 20 18  0  0  0  0  0  0  0  0999 V2000
    1.2515    0.8525    0.0000 C   0  0  0  0  0  0  0  0  0  0  0  0
    1.1055    1.6335    0.5947 H   0  0  0  0  0  0  0  0  0  0  0  0
    1.4351    1.1483   -0.9290 H   0  0  0  0  0  0  0  0  0  0  0  0
    2.1048    0.2822    0.3672 H   0  0  0  0  0  0  0  0  0  0  0  0
    0.0000    0.0000    0.0000 C   0  0  0  0  0  0  0  0  0  0  0  0
    0.0056   -0.5916   -0.8157 H   0  0  0  0  0  0  0  0  0  0  0  0
    0.0058   -0.5922    0.8161 H   0  0  0  0  0  0  0  0  0  0  0  0
   -1.2515    0.8094    0.0000 N   0  0  0  0  0  4  0  0  0  0  0  0
   -1.0172    1.7799   -0.0486 H   0  0  0  0  0  0  0  0  0  0  0  0
   -1.8078    0.5576   -0.7905 H   0  0  0  0  0  0  0  0  0  0  0  0
   -1.7622    0.6295    0.8404 H   0  0  0  0  0  0  0  0  0  0  0  0
   -1.0658   -0.1174    4.5984 C   0  0  0  0  0  0  0  0  0  0  0  0
   -0.5304   -0.9475    4.3097 H   0  0  0  0  0  0  0  0  0  0  0  0
   -2.0398   -0.4400    4.6726 H   0  0  0  0  0  0  0  0  0  0  0  0
   -0.7256    0.1834    5.5893 H   0  0  0  0  0  0  0  0  0  0  0  0
   -0.9305    1.1953    3.3249 S   0  0  0  0  0  0  0  0  0  0  0  0
   -2.5443    1.9381    3.4299 C   0  0  0  0  0  0  0  0  0  0  0  0
   -2.6551    2.6192    2.7015 H   0  0  0  0  0  0  0  0  0  0  0  0
   -3.2513    1.2345    3.3296 H   0  0  0  0  0  0  0  0  0  0  0  0
   -2.6550    2.3890    4.3192 H   0  0  0  0  0  0  0  0  0  0  0  0
  1  5  1  0
  5  8  1  0
  1  2  1  0
  1  3  1  0
  1  4  1  0
  5  6  1  0
  5  7  1  0
  8  9  1  0
  8 10  1  0
  8 11  1  0
 12 16  1  0
 16 17  1  0
 12 13  1  0
 12 14  1  0
 12 15  1  0
 17 18  1  0
 17 19  1  0
 17 20  1  0
M  CHG  1   8   1
M  END
>  <PDB_ID>  (1132) 
pdb4jle

>  <RESIDUE_NAME>  (1132) 
LYS   MET

>  <FRAG_NAME>  (1132) 
ETAM   MSM

>  <FRAG_ATOM_NUM>  (1132) 
fragi: 11  fragj: 9

>  <atom.prop.CHAIN_ID>  (1132) 
A A A A A A A A A A A Z Z Z Z Z Z Z Z Z

>  <atom.prop.IS_HEAVY_ATOM>  (1132) 
1 0 0 0 1 0 0 1 0 0 0 1 0 0 0 1 1 0 0 0

>  <DIFUSE_FUNC_ATOM>  (1132) 
n/a

>  <FINAL_SINGLE_POINT_ENERGY>  (1132) 
0

>  <NONCOV_INTER_ENERGY_QM>  (1132) 
0

>  <FF_Energy>  (1132) 
-5.26

>  <QM_Energy>  (1132) 
-13.76

>  <source>  (1132) 
ETAM_MSM

>  <Index>  (1132) 
6981

$$$$
ETAM-pdb3mkb-A-LYS-138:MSM-pdb3mkb-A-MET-81
     RDKit          3D

 20 18  0  0  0  0  0  0  0  0999 V2000
    1.2810    0.8533    0.0000 C   0  0  0  0  0  0  0  0  0  0  0  0
    1.6651    0.8420    0.9187 H   0  0  0  0  0  0  0  0  0  0  0  0
    1.0379    1.7827   -0.2603 H   0  0  0  0  0  0  0  0  0  0  0  0
    2.0327    0.4806   -0.6958 H   0  0  0  0  0  0  0  0  0  0  0  0
    0.0000    0.0000    0.0000 C   0  0  0  0  0  0  0  0  0  0  0  0
    0.0059   -0.5916   -0.8161 H   0  0  0  0  0  0  0  0  0  0  0  0
    0.0058   -0.5914    0.8163 H   0  0  0  0  0  0  0  0  0  0  0  0
   -1.2810    0.8109    0.0000 N   0  0  0  0  0  4  0  0  0  0  0  0
   -1.9365    0.3702   -0.6056 H   0  0  0  0  0  0  0  0  0  0  0  0
   -1.6360    0.8433    0.9287 H   0  0  0  0  0  0  0  0  0  0  0  0
   -1.0760    1.7290   -0.3232 H   0  0  0  0  0  0  0  0  0  0  0  0
   -1.2028    3.5334   -3.5032 C   0  0  0  0  0  0  0  0  0  0  0  0
   -1.8594    3.3011   -4.2752 H   0  0  0  0  0  0  0  0  0  0  0  0
   -0.6670    2.6531   -3.3673 H   0  0  0  0  0  0  0  0  0  0  0  0
   -0.5106    4.2897   -3.8733 H   0  0  0  0  0  0  0  0  0  0  0  0
   -2.1104    3.9644   -2.0020 S   0  0  0  0  0  0  0  0  0  0  0  0
   -1.9854    5.7773   -1.9913 C   0  0  0  0  0  0  0  0  0  0  0  0
   -2.9039    6.1636   -1.9715 H   0  0  0  0  0  0  0  0  0  0  0  0
   -1.4779    6.0612   -1.1815 H   0  0  0  0  0  0  0  0  0  0  0  0
   -1.5076    6.0734   -2.8148 H   0  0  0  0  0  0  0  0  0  0  0  0
  1  5  1  0
  5  8  1  0
  1  2  1  0
  1  3  1  0
  1  4  1  0
  5  6  1  0
  5  7  1  0
  8  9  1  0
  8 10  1  0
  8 11  1  0
 12 16  1  0
 16 17  1  0
 12 13  1  0
 12 14  1  0
 12 15  1  0
 17 18  1  0
 17 19  1  0
 17 20  1  0
M  CHG  1   8   1
M  END
>  <PDB_ID>  (1133) 
pdb3mkb

>  <RESIDUE_NAME>  (1133) 
LYS   MET

>  <FRAG_NAME>  (1133) 
ETAM   MSM

>  <FRAG_ATOM_NUM>  (1133) 
fragi: 11  fragj: 9

>  <atom.prop.CHAIN_ID>  (1133) 
A A A A A A A A A A A Z Z Z Z Z Z Z Z Z

>  <atom.prop.IS_HEAVY_ATOM>  (1133) 
1 0 0 0 1 0 0 1 0 0 0 1 0 0 0 1 1 0 0 0

>  <DIFUSE_FUNC_ATOM>  (1133) 
n/a

>  <FINAL_SINGLE_POINT_ENERGY>  (1133) 
0

>  <NONCOV_INTER_ENERGY_QM>  (1133) 
0

>  <FF_Energy>  (1133) 
-4.44

>  <QM_Energy>  (1133) 
-10.94

>  <source>  (1133) 
ETAM_MSM

>  <Index>  (1133) 
6983

$$$$
ETAM-pdb3mn5-A-LYS-291:MSM-pdb3mn5-A-MET-325
     RDKit          3D

 20 18  0  0  0  0  0  0  0  0999 V2000
    1.3536    0.8886   -0.0000 C   0  0  0  0  0  0  0  0  0  0  0  0
    1.9856    0.4235    0.5828 H   0  0  0  0  0  0  0  0  0  0  0  0
    1.0995    1.7727    0.3315 H   0  0  0  0  0  0  0  0  0  0  0  0
    1.7476    0.9573   -1.0140 H   0  0  0  0  0  0  0  0  0  0  0  0
    0.0000    0.0000    0.0000 C   0  0  0  0  0  0  0  0  0  0  0  0
    0.0279   -0.5881   -0.8168 H   0  0  0  0  0  0  0  0  0  0  0  0
    0.0274   -0.5878    0.8162 H   0  0  0  0  0  0  0  0  0  0  0  0
   -1.3536    0.7834    0.0000 N   0  0  0  0  0  4  0  0  0  0  0  0
   -1.6638    0.8340   -0.9362 H   0  0  0  0  0  0  0  0  0  0  0  0
   -1.9855    0.2773    0.5651 H   0  0  0  0  0  0  0  0  0  0  0  0
   -1.1741    1.6805    0.3709 H   0  0  0  0  0  0  0  0  0  0  0  0
   -2.4551    2.7725   -4.3397 C   0  0  0  0  0  0  0  0  0  0  0  0
   -2.4441    2.6208   -5.3874 H   0  0  0  0  0  0  0  0  0  0  0  0
   -2.4562    3.8304   -4.2896 H   0  0  0  0  0  0  0  0  0  0  0  0
   -3.4314    2.4408   -3.9863 H   0  0  0  0  0  0  0  0  0  0  0  0
   -1.0142    2.0970   -3.5794 S   0  0  0  0  0  0  0  0  0  0  0  0
   -1.1413    0.3622   -4.0889 C   0  0  0  0  0  0  0  0  0  0  0  0
   -2.1045    0.1202   -4.1808 H   0  0  0  0  0  0  0  0  0  0  0  0
   -0.6764    0.2451   -4.9631 H   0  0  0  0  0  0  0  0  0  0  0  0
   -0.7106   -0.2124   -3.3960 H   0  0  0  0  0  0  0  0  0  0  0  0
  1  5  1  0
  5  8  1  0
  1  2  1  0
  1  3  1  0
  1  4  1  0
  5  6  1  0
  5  7  1  0
  8  9  1  0
  8 10  1  0
  8 11  1  0
 12 16  1  0
 16 17  1  0
 12 13  1  0
 12 14  1  0
 12 15  1  0
 17 18  1  0
 17 19  1  0
 17 20  1  0
M  CHG  1   8   1
M  END
>  <PDB_ID>  (1134) 
pdb3mn5

>  <RESIDUE_NAME>  (1134) 
LYS   MET

>  <FRAG_NAME>  (1134) 
ETAM   MSM

>  <FRAG_ATOM_NUM>  (1134) 
fragi: 11  fragj: 9

>  <atom.prop.CHAIN_ID>  (1134) 
A A A A A A A A A A A Z Z Z Z Z Z Z Z Z

>  <atom.prop.IS_HEAVY_ATOM>  (1134) 
1 0 0 0 1 0 0 1 0 0 0 1 0 0 0 1 1 0 0 0

>  <DIFUSE_FUNC_ATOM>  (1134) 
n/a

>  <FINAL_SINGLE_POINT_ENERGY>  (1134) 
0

>  <NONCOV_INTER_ENERGY_QM>  (1134) 
0

>  <FF_Energy>  (1134) 
-4.47

>  <QM_Energy>  (1134) 
-10.69

>  <source>  (1134) 
ETAM_MSM

>  <Index>  (1134) 
6989

$$$$
ETAM-pdb4jon-B-LYS-111:MSM-pdb4jon-C-MET-22
     RDKit          3D

 20 18  0  0  0  0  0  0  0  0999 V2000
    1.2402    0.8626    0.0000 C   0  0  0  0  0  0  0  0  0  0  0  0
    1.0883    1.6440    0.6079 H   0  0  0  0  0  0  0  0  0  0  0  0
    1.3995    1.1953   -0.9307 H   0  0  0  0  0  0  0  0  0  0  0  0
    2.1282    0.3272    0.3362 H   0  0  0  0  0  0  0  0  0  0  0  0
    0.0000    0.0000    0.0000 C   0  0  0  0  0  0  0  0  0  0  0  0
    0.0038   -0.5833   -0.8159 H   0  0  0  0  0  0  0  0  0  0  0  0
    0.0039   -0.5833    0.8160 H   0  0  0  0  0  0  0  0  0  0  0  0
   -1.2402    0.8246   -0.0000 N   0  0  0  0  0  4  0  0  0  0  0  0
   -1.1677    1.5312   -0.7028 H   0  0  0  0  0  0  0  0  0  0  0  0
   -2.0268    0.2393   -0.1923 H   0  0  0  0  0  0  0  0  0  0  0  0
   -1.3531    1.2533    0.8954 H   0  0  0  0  0  0  0  0  0  0  0  0
   -2.2489    4.7160    3.2081 C   0  0  0  0  0  0  0  0  0  0  0  0
   -1.6722    5.4645    3.5936 H   0  0  0  0  0  0  0  0  0  0  0  0
   -3.1413    4.7605    3.7015 H   0  0  0  0  0  0  0  0  0  0  0  0
   -2.4332    4.9409    2.1576 H   0  0  0  0  0  0  0  0  0  0  0  0
   -1.4737    3.1287    3.3996 S   0  0  0  0  0  0  0  0  0  0  0  0
    0.1486    3.4301    2.7539 C   0  0  0  0  0  0  0  0  0  0  0  0
    0.5030    2.6020    2.3090 H   0  0  0  0  0  0  0  0  0  0  0  0
    0.1185    4.1731    2.0785 H   0  0  0  0  0  0  0  0  0  0  0  0
    0.7729    3.6921    3.4957 H   0  0  0  0  0  0  0  0  0  0  0  0
  1  5  1  0
  5  8  1  0
  1  2  1  0
  1  3  1  0
  1  4  1  0
  5  6  1  0
  5  7  1  0
  8  9  1  0
  8 10  1  0
  8 11  1  0
 12 16  1  0
 16 17  1  0
 12 13  1  0
 12 14  1  0
 12 15  1  0
 17 18  1  0
 17 19  1  0
 17 20  1  0
M  CHG  1   8   1
M  END
>  <PDB_ID>  (1135) 
pdb4jon

>  <RESIDUE_NAME>  (1135) 
LYS   MET

>  <FRAG_NAME>  (1135) 
ETAM   MSM

>  <FRAG_ATOM_NUM>  (1135) 
fragi: 11  fragj: 9

>  <atom.prop.CHAIN_ID>  (1135) 
A A A A A A A A A A A Z Z Z Z Z Z Z Z Z

>  <atom.prop.IS_HEAVY_ATOM>  (1135) 
1 0 0 0 1 0 0 1 0 0 0 1 0 0 0 1 1 0 0 0

>  <DIFUSE_FUNC_ATOM>  (1135) 
n/a

>  <FINAL_SINGLE_POINT_ENERGY>  (1135) 
0

>  <NONCOV_INTER_ENERGY_QM>  (1135) 
0

>  <FF_Energy>  (1135) 
-2.6

>  <QM_Energy>  (1135) 
-7.79

>  <source>  (1135) 
ETAM_MSM

>  <Index>  (1135) 
6997

$$$$
ETAM-pdb3mpi-A-LYS-157:MSM-pdb3mpi-A-MET-140
     RDKit          3D

 20 18  0  0  0  0  0  0  0  0999 V2000
    1.2518    0.8714    0.0000 C   0  0  0  0  0  0  0  0  0  0  0  0
    1.2795    1.3931    0.8438 H   0  0  0  0  0  0  0  0  0  0  0  0
    1.2227    1.4753   -0.7867 H   0  0  0  0  0  0  0  0  0  0  0  0
    2.1594    0.2709   -0.0616 H   0  0  0  0  0  0  0  0  0  0  0  0
    0.0000    0.0000    0.0000 C   0  0  0  0  0  0  0  0  0  0  0  0
    0.0196   -0.5910   -0.8158 H   0  0  0  0  0  0  0  0  0  0  0  0
    0.0191   -0.5910    0.8168 H   0  0  0  0  0  0  0  0  0  0  0  0
   -1.2518    0.7939   -0.0000 N   0  0  0  0  0  4  0  0  0  0  0  0
   -1.6809    0.7414   -0.9021 H   0  0  0  0  0  0  0  0  0  0  0  0
   -1.8794    0.4283    0.6887 H   0  0  0  0  0  0  0  0  0  0  0  0
   -1.0428    1.7491    0.2137 H   0  0  0  0  0  0  0  0  0  0  0  0
   -4.9403    2.7336   -0.9552 C   0  0  0  0  0  0  0  0  0  0  0  0
   -5.7751    3.2562   -0.6626 H   0  0  0  0  0  0  0  0  0  0  0  0
   -5.2083    2.2655   -1.8303 H   0  0  0  0  0  0  0  0  0  0  0  0
   -4.1544    3.4537   -1.1832 H   0  0  0  0  0  0  0  0  0  0  0  0
   -4.4714    1.5169    0.3041 S   0  0  0  0  0  0  0  0  0  0  0  0
   -4.3576    2.5011    1.7916 C   0  0  0  0  0  0  0  0  0  0  0  0
   -3.9713    3.3997    1.5734 H   0  0  0  0  0  0  0  0  0  0  0  0
   -5.2699    2.6218    2.1879 H   0  0  0  0  0  0  0  0  0  0  0  0
   -3.7675    2.0400    2.4574 H   0  0  0  0  0  0  0  0  0  0  0  0
  1  5  1  0
  5  8  1  0
  1  2  1  0
  1  3  1  0
  1  4  1  0
  5  6  1  0
  5  7  1  0
  8  9  1  0
  8 10  1  0
  8 11  1  0
 12 16  1  0
 16 17  1  0
 12 13  1  0
 12 14  1  0
 12 15  1  0
 17 18  1  0
 17 19  1  0
 17 20  1  0
M  CHG  1   8   1
M  END
>  <PDB_ID>  (1136) 
pdb3mpi

>  <RESIDUE_NAME>  (1136) 
LYS   MET

>  <FRAG_NAME>  (1136) 
ETAM   MSM

>  <FRAG_ATOM_NUM>  (1136) 
fragi: 11  fragj: 9

>  <atom.prop.CHAIN_ID>  (1136) 
A A A A A A A A A A A Z Z Z Z Z Z Z Z Z

>  <atom.prop.IS_HEAVY_ATOM>  (1136) 
1 0 0 0 1 0 0 1 0 0 0 1 0 0 0 1 1 0 0 0

>  <DIFUSE_FUNC_ATOM>  (1136) 
n/a

>  <FINAL_SINGLE_POINT_ENERGY>  (1136) 
0

>  <NONCOV_INTER_ENERGY_QM>  (1136) 
0

>  <FF_Energy>  (1136) 
-4.51

>  <QM_Energy>  (1136) 
-12.11

>  <source>  (1136) 
ETAM_MSM

>  <Index>  (1136) 
7005

$$$$
ETAM-pdb3mpi-C-LYS-157:MSM-pdb3mpi-C-MET-140
     RDKit          3D

 20 18  0  0  0  0  0  0  0  0999 V2000
    1.2825    0.8704   -0.0000 C   0  0  0  0  0  0  0  0  0  0  0  0
    1.3376    1.3394    0.8686 H   0  0  0  0  0  0  0  0  0  0  0  0
    1.2224    1.5082   -0.7520 H   0  0  0  0  0  0  0  0  0  0  0  0
    2.1749    0.2574   -0.1266 H   0  0  0  0  0  0  0  0  0  0  0  0
    0.0000    0.0000    0.0000 C   0  0  0  0  0  0  0  0  0  0  0  0
    0.0121   -0.5853   -0.8164 H   0  0  0  0  0  0  0  0  0  0  0  0
    0.0113   -0.5856    0.8163 H   0  0  0  0  0  0  0  0  0  0  0  0
   -1.2825    0.8115   -0.0000 N   0  0  0  0  0  4  0  0  0  0  0  0
   -1.8459    0.5144    0.7641 H   0  0  0  0  0  0  0  0  0  0  0  0
   -1.0489    1.7734    0.0964 H   0  0  0  0  0  0  0  0  0  0  0  0
   -1.7567    0.6554   -0.8602 H   0  0  0  0  0  0  0  0  0  0  0  0
   -5.1058    2.5230   -1.1568 C   0  0  0  0  0  0  0  0  0  0  0  0
   -5.7507    3.2574   -0.8841 H   0  0  0  0  0  0  0  0  0  0  0  0
   -5.6224    1.8750   -1.7426 H   0  0  0  0  0  0  0  0  0  0  0  0
   -4.2976    2.9621   -1.7417 H   0  0  0  0  0  0  0  0  0  0  0  0
   -4.4537    1.6715    0.3121 S   0  0  0  0  0  0  0  0  0  0  0  0
   -4.1779    3.0616    1.4090 C   0  0  0  0  0  0  0  0  0  0  0  0
   -4.5198    3.8992    0.9817 H   0  0  0  0  0  0  0  0  0  0  0  0
   -4.6613    2.9084    2.2721 H   0  0  0  0  0  0  0  0  0  0  0  0
   -3.1980    3.1566    1.5894 H   0  0  0  0  0  0  0  0  0  0  0  0
  1  5  1  0
  5  8  1  0
  1  2  1  0
  1  3  1  0
  1  4  1  0
  5  6  1  0
  5  7  1  0
  8  9  1  0
  8 10  1  0
  8 11  1  0
 12 16  1  0
 16 17  1  0
 12 13  1  0
 12 14  1  0
 12 15  1  0
 17 18  1  0
 17 19  1  0
 17 20  1  0
M  CHG  1   8   1
M  END
>  <PDB_ID>  (1137) 
pdb3mpi

>  <RESIDUE_NAME>  (1137) 
LYS   MET

>  <FRAG_NAME>  (1137) 
ETAM   MSM

>  <FRAG_ATOM_NUM>  (1137) 
fragi: 11  fragj: 9

>  <atom.prop.CHAIN_ID>  (1137) 
A A A A A A A A A A A Z Z Z Z Z Z Z Z Z

>  <atom.prop.IS_HEAVY_ATOM>  (1137) 
1 0 0 0 1 0 0 1 0 0 0 1 0 0 0 1 1 0 0 0

>  <DIFUSE_FUNC_ATOM>  (1137) 
n/a

>  <FINAL_SINGLE_POINT_ENERGY>  (1137) 
0

>  <NONCOV_INTER_ENERGY_QM>  (1137) 
0

>  <FF_Energy>  (1137) 
-4.19

>  <QM_Energy>  (1137) 
-11.41

>  <source>  (1137) 
ETAM_MSM

>  <Index>  (1137) 
7009

$$$$
ETAM-pdb4jue-A-LYS-5:MSM-pdb4jue-A-MET-39
     RDKit          3D

 20 18  0  0  0  0  0  0  0  0999 V2000
    1.2381    0.8950   -0.0000 C   0  0  0  0  0  0  0  0  0  0  0  0
    1.2189    1.4582   -0.8150 H   0  0  0  0  0  0  0  0  0  0  0  0
    2.0428    0.3176    0.0147 H   0  0  0  0  0  0  0  0  0  0  0  0
    1.2473    1.5413    0.8777 H   0  0  0  0  0  0  0  0  0  0  0  0
    0.0000    0.0000    0.0000 C   0  0  0  0  0  0  0  0  0  0  0  0
    0.0236   -0.5778   -0.8159 H   0  0  0  0  0  0  0  0  0  0  0  0
    0.0229   -0.5777    0.8163 H   0  0  0  0  0  0  0  0  0  0  0  0
   -1.2381    0.8087    0.0000 N   0  0  0  0  0  4  0  0  0  0  0  0
   -1.5843    0.8941    0.9358 H   0  0  0  0  0  0  0  0  0  0  0  0
   -1.0443    1.7209   -0.3654 H   0  0  0  0  0  0  0  0  0  0  0  0
   -1.9304    0.3630   -0.5704 H   0  0  0  0  0  0  0  0  0  0  0  0
   -1.8819   -1.2695    3.5452 C   0  0  0  0  0  0  0  0  0  0  0  0
   -1.1408   -1.8183    3.0797 H   0  0  0  0  0  0  0  0  0  0  0  0
   -2.6810   -1.3095    2.8928 H   0  0  0  0  0  0  0  0  0  0  0  0
   -2.1644   -1.7898    4.4604 H   0  0  0  0  0  0  0  0  0  0  0  0
   -1.3525    0.4276    3.8048 S   0  0  0  0  0  0  0  0  0  0  0  0
   -2.8845    1.1687    4.3773 C   0  0  0  0  0  0  0  0  0  0  0  0
   -2.7680    2.1590    4.4528 H   0  0  0  0  0  0  0  0  0  0  0  0
   -3.6157    0.9676    3.7256 H   0  0  0  0  0  0  0  0  0  0  0  0
   -3.1224    0.7925    5.2730 H   0  0  0  0  0  0  0  0  0  0  0  0
  1  5  1  0
  5  8  1  0
  1  2  1  0
  1  3  1  0
  1  4  1  0
  5  6  1  0
  5  7  1  0
  8  9  1  0
  8 10  1  0
  8 11  1  0
 12 16  1  0
 16 17  1  0
 12 13  1  0
 12 14  1  0
 12 15  1  0
 17 18  1  0
 17 19  1  0
 17 20  1  0
M  CHG  1   8   1
M  END
>  <PDB_ID>  (1138) 
pdb4jue

>  <RESIDUE_NAME>  (1138) 
LYS   MET

>  <FRAG_NAME>  (1138) 
ETAM   MSM

>  <FRAG_ATOM_NUM>  (1138) 
fragi: 11  fragj: 9

>  <atom.prop.CHAIN_ID>  (1138) 
A A A A A A A A A A A Z Z Z Z Z Z Z Z Z

>  <atom.prop.IS_HEAVY_ATOM>  (1138) 
1 0 0 0 1 0 0 1 0 0 0 1 0 0 0 1 1 0 0 0

>  <DIFUSE_FUNC_ATOM>  (1138) 
n/a

>  <FINAL_SINGLE_POINT_ENERGY>  (1138) 
0

>  <NONCOV_INTER_ENERGY_QM>  (1138) 
0

>  <FF_Energy>  (1138) 
-4.28

>  <QM_Energy>  (1138) 
-12.05

>  <source>  (1138) 
ETAM_MSM

>  <Index>  (1138) 
7016

$$$$
ETAM-pdb4jwj-A-LYS-221:MSM-pdb4jwj-A-MET-225
     RDKit          3D

 20 18  0  0  0  0  0  0  0  0999 V2000
    1.2385    0.9433    0.0000 C   0  0  0  0  0  0  0  0  0  0  0  0
    2.0202    0.4164    0.2893 H   0  0  0  0  0  0  0  0  0  0  0  0
    1.0512    1.6884    0.6183 H   0  0  0  0  0  0  0  0  0  0  0  0
    1.4191    1.3388   -0.9996 H   0  0  0  0  0  0  0  0  0  0  0  0
    0.0000    0.0000    0.0000 C   0  0  0  0  0  0  0  0  0  0  0  0
    0.0599   -0.5751   -0.8158 H   0  0  0  0  0  0  0  0  0  0  0  0
    0.0598   -0.5754    0.8161 H   0  0  0  0  0  0  0  0  0  0  0  0
   -1.2385    0.7650    0.0000 N   0  0  0  0  0  4  0  0  0  0  0  0
   -1.7921    0.5306    0.8061 H   0  0  0  0  0  0  0  0  0  0  0  0
   -1.0388    1.7500    0.0216 H   0  0  0  0  0  0  0  0  0  0  0  0
   -1.7717    0.5632   -0.8270 H   0  0  0  0  0  0  0  0  0  0  0  0
   -1.7396    2.6638   -3.9434 C   0  0  0  0  0  0  0  0  0  0  0  0
   -2.2868    1.8262   -4.1325 H   0  0  0  0  0  0  0  0  0  0  0  0
   -0.7763    2.4413   -4.1872 H   0  0  0  0  0  0  0  0  0  0  0  0
   -2.0817    3.4421   -4.6256 H   0  0  0  0  0  0  0  0  0  0  0  0
   -1.8889    3.1803   -2.2430 S   0  0  0  0  0  0  0  0  0  0  0  0
   -3.6348    2.8818   -1.8687 C   0  0  0  0  0  0  0  0  0  0  0  0
   -4.0810    3.7534   -1.6764 H   0  0  0  0  0  0  0  0  0  0  0  0
   -4.0671    2.4461   -2.6554 H   0  0  0  0  0  0  0  0  0  0  0  0
   -3.7000    2.2842   -1.0719 H   0  0  0  0  0  0  0  0  0  0  0  0
  1  5  1  0
  5  8  1  0
  1  2  1  0
  1  3  1  0
  1  4  1  0
  5  6  1  0
  5  7  1  0
  8  9  1  0
  8 10  1  0
  8 11  1  0
 12 16  1  0
 16 17  1  0
 12 13  1  0
 12 14  1  0
 12 15  1  0
 17 18  1  0
 17 19  1  0
 17 20  1  0
M  CHG  1   8   1
M  END
>  <PDB_ID>  (1139) 
pdb4jwj

>  <RESIDUE_NAME>  (1139) 
LYS   MET

>  <FRAG_NAME>  (1139) 
ETAM   MSM

>  <FRAG_ATOM_NUM>  (1139) 
fragi: 11  fragj: 9

>  <atom.prop.CHAIN_ID>  (1139) 
A A A A A A A A A A A Z Z Z Z Z Z Z Z Z

>  <atom.prop.IS_HEAVY_ATOM>  (1139) 
1 0 0 0 1 0 0 1 0 0 0 1 0 0 0 1 1 0 0 0

>  <DIFUSE_FUNC_ATOM>  (1139) 
n/a

>  <FINAL_SINGLE_POINT_ENERGY>  (1139) 
0

>  <NONCOV_INTER_ENERGY_QM>  (1139) 
0

>  <FF_Energy>  (1139) 
-4.53

>  <QM_Energy>  (1139) 
-11.95

>  <source>  (1139) 
ETAM_MSM

>  <Index>  (1139) 
7025

$$$$
ETAM-pdb4jwj-B-LYS-221:MSM-pdb4jwj-B-MET-225
     RDKit          3D

 20 18  0  0  0  0  0  0  0  0999 V2000
    1.2506    0.9013    0.0000 C   0  0  0  0  0  0  0  0  0  0  0  0
    2.0070    0.3829    0.3706 H   0  0  0  0  0  0  0  0  0  0  0  0
    1.0575    1.7000    0.5496 H   0  0  0  0  0  0  0  0  0  0  0  0
    1.4990    1.2175   -1.0131 H   0  0  0  0  0  0  0  0  0  0  0  0
    0.0000    0.0000    0.0000 C   0  0  0  0  0  0  0  0  0  0  0  0
    0.0424   -0.5892   -0.8165 H   0  0  0  0  0  0  0  0  0  0  0  0
    0.0424   -0.5894    0.8169 H   0  0  0  0  0  0  0  0  0  0  0  0
   -1.2506    0.7662    0.0000 N   0  0  0  0  0  4  0  0  0  0  0  0
   -1.8797    0.3953    0.6881 H   0  0  0  0  0  0  0  0  0  0  0  0
   -1.0628    1.7280    0.2143 H   0  0  0  0  0  0  0  0  0  0  0  0
   -1.6854    0.7119   -0.9019 H   0  0  0  0  0  0  0  0  0  0  0  0
   -1.4486    2.5371   -4.1419 C   0  0  0  0  0  0  0  0  0  0  0  0
   -2.0347    1.7284   -4.3509 H   0  0  0  0  0  0  0  0  0  0  0  0
   -0.4862    2.2430   -4.3120 H   0  0  0  0  0  0  0  0  0  0  0  0
   -1.6902    3.3169   -4.8641 H   0  0  0  0  0  0  0  0  0  0  0  0
   -1.6793    3.1071   -2.4796 S   0  0  0  0  0  0  0  0  0  0  0  0
   -3.4681    2.8593   -2.2336 C   0  0  0  0  0  0  0  0  0  0  0  0
   -3.7622    2.0813   -2.7823 H   0  0  0  0  0  0  0  0  0  0  0  0
   -3.6366    2.6822   -1.2689 H   0  0  0  0  0  0  0  0  0  0  0  0
   -3.9478    3.6838   -2.5210 H   0  0  0  0  0  0  0  0  0  0  0  0
  1  5  1  0
  5  8  1  0
  1  2  1  0
  1  3  1  0
  1  4  1  0
  5  6  1  0
  5  7  1  0
  8  9  1  0
  8 10  1  0
  8 11  1  0
 12 16  1  0
 16 17  1  0
 12 13  1  0
 12 14  1  0
 12 15  1  0
 17 18  1  0
 17 19  1  0
 17 20  1  0
M  CHG  1   8   1
M  END
>  <PDB_ID>  (1140) 
pdb4jwj

>  <RESIDUE_NAME>  (1140) 
LYS   MET

>  <FRAG_NAME>  (1140) 
ETAM   MSM

>  <FRAG_ATOM_NUM>  (1140) 
fragi: 11  fragj: 9

>  <atom.prop.CHAIN_ID>  (1140) 
A A A A A A A A A A A Z Z Z Z Z Z Z Z Z

>  <atom.prop.IS_HEAVY_ATOM>  (1140) 
1 0 0 0 1 0 0 1 0 0 0 1 0 0 0 1 1 0 0 0

>  <DIFUSE_FUNC_ATOM>  (1140) 
n/a

>  <FINAL_SINGLE_POINT_ENERGY>  (1140) 
0

>  <NONCOV_INTER_ENERGY_QM>  (1140) 
0

>  <FF_Energy>  (1140) 
-4.69

>  <QM_Energy>  (1140) 
-11.98

>  <source>  (1140) 
ETAM_MSM

>  <Index>  (1140) 
7034

$$$$
ETAM-pdb4jzb-B-LYS-273:MSM-pdb4jzb-B-MET-174
     RDKit          3D

 20 18  0  0  0  0  0  0  0  0999 V2000
    1.2394    0.8500    0.0000 C   0  0  0  0  0  0  0  0  0  0  0  0
    1.2979    1.3439    0.8636 H   0  0  0  0  0  0  0  0  0  0  0  0
    1.1949    1.4930   -0.7600 H   0  0  0  0  0  0  0  0  0  0  0  0
    2.1405    0.2468   -0.1114 H   0  0  0  0  0  0  0  0  0  0  0  0
    0.0000    0.0000    0.0000 C   0  0  0  0  0  0  0  0  0  0  0  0
    0.0019   -0.5907   -0.8162 H   0  0  0  0  0  0  0  0  0  0  0  0
    0.0020   -0.5904    0.8165 H   0  0  0  0  0  0  0  0  0  0  0  0
   -1.2394    0.8175    0.0000 N   0  0  0  0  0  4  0  0  0  0  0  0
   -1.9106    0.4051    0.6154 H   0  0  0  0  0  0  0  0  0  0  0  0
   -1.0276    1.7447    0.3104 H   0  0  0  0  0  0  0  0  0  0  0  0
   -1.6147    0.8540   -0.9266 H   0  0  0  0  0  0  0  0  0  0  0  0
   -2.8591   -3.8550   -2.2106 C   0  0  0  0  0  0  0  0  0  0  0  0
   -3.8468   -4.0642   -2.3845 H   0  0  0  0  0  0  0  0  0  0  0  0
   -2.6021   -4.4027   -1.3837 H   0  0  0  0  0  0  0  0  0  0  0  0
   -2.2770   -4.2157   -3.0587 H   0  0  0  0  0  0  0  0  0  0  0  0
   -2.6261   -2.0847   -1.9007 S   0  0  0  0  0  0  0  0  0  0  0  0
   -0.9377   -1.8870   -2.4488 C   0  0  0  0  0  0  0  0  0  0  0  0
   -0.8151   -0.9747   -2.8460 H   0  0  0  0  0  0  0  0  0  0  0  0
   -0.3153   -1.9941   -1.6714 H   0  0  0  0  0  0  0  0  0  0  0  0
   -0.7228   -2.5790   -3.1406 H   0  0  0  0  0  0  0  0  0  0  0  0
  1  5  1  0
  5  8  1  0
  1  2  1  0
  1  3  1  0
  1  4  1  0
  5  6  1  0
  5  7  1  0
  8  9  1  0
  8 10  1  0
  8 11  1  0
 12 16  1  0
 16 17  1  0
 12 13  1  0
 12 14  1  0
 12 15  1  0
 17 18  1  0
 17 19  1  0
 17 20  1  0
M  CHG  1   8   1
M  END
>  <PDB_ID>  (1141) 
pdb4jzb

>  <RESIDUE_NAME>  (1141) 
LYS   MET

>  <FRAG_NAME>  (1141) 
ETAM   MSM

>  <FRAG_ATOM_NUM>  (1141) 
fragi: 11  fragj: 9

>  <atom.prop.CHAIN_ID>  (1141) 
A A A A A A A A A A A Z Z Z Z Z Z Z Z Z

>  <atom.prop.IS_HEAVY_ATOM>  (1141) 
1 0 0 0 1 0 0 1 0 0 0 1 0 0 0 1 1 0 0 0

>  <DIFUSE_FUNC_ATOM>  (1141) 
n/a

>  <FINAL_SINGLE_POINT_ENERGY>  (1141) 
0

>  <NONCOV_INTER_ENERGY_QM>  (1141) 
0

>  <FF_Energy>  (1141) 
8.74

>  <QM_Energy>  (1141) 
-4.12

>  <source>  (1141) 
ETAM_MSM

>  <Index>  (1141) 
7059

$$$$
ETAM-pdb4k6c-A-LYS-99:MSM-pdb4k6c-A-MET-95
     RDKit          3D

 20 18  0  0  0  0  0  0  0  0999 V2000
    1.2505    0.8671    0.0000 C   0  0  0  0  0  0  0  0  0  0  0  0
    1.2111    1.4800    0.7795 H   0  0  0  0  0  0  0  0  0  0  0  0
    1.2807    1.3786   -0.8498 H   0  0  0  0  0  0  0  0  0  0  0  0
    2.1480    0.2535    0.0770 H   0  0  0  0  0  0  0  0  0  0  0  0
    0.0000    0.0000    0.0000 C   0  0  0  0  0  0  0  0  0  0  0  0
    0.0085   -0.5844   -0.8160 H   0  0  0  0  0  0  0  0  0  0  0  0
    0.0081   -0.5847    0.8162 H   0  0  0  0  0  0  0  0  0  0  0  0
   -1.2505    0.8185   -0.0000 N   0  0  0  0  0  4  0  0  0  0  0  0
   -2.0068    0.2622    0.3385 H   0  0  0  0  0  0  0  0  0  0  0  0
   -1.1237    1.6115    0.5925 H   0  0  0  0  0  0  0  0  0  0  0  0
   -1.4447    1.1216   -0.9312 H   0  0  0  0  0  0  0  0  0  0  0  0
    1.5357   -2.0888   -3.9019 C   0  0  0  0  0  0  0  0  0  0  0  0
    2.2172   -2.6967   -3.4548 H   0  0  0  0  0  0  0  0  0  0  0  0
    1.9185   -1.1472   -3.8729 H   0  0  0  0  0  0  0  0  0  0  0  0
    1.4127   -2.3935   -4.9412 H   0  0  0  0  0  0  0  0  0  0  0  0
   -0.0453   -2.1565   -3.0219 S   0  0  0  0  0  0  0  0  0  0  0  0
   -0.5182   -3.8716   -3.1374 C   0  0  0  0  0  0  0  0  0  0  0  0
   -0.6335   -4.1284   -4.0996 H   0  0  0  0  0  0  0  0  0  0  0  0
    0.1915   -4.4480   -2.7265 H   0  0  0  0  0  0  0  0  0  0  0  0
   -1.3828   -4.0188   -2.6521 H   0  0  0  0  0  0  0  0  0  0  0  0
  1  5  1  0
  5  8  1  0
  1  2  1  0
  1  3  1  0
  1  4  1  0
  5  6  1  0
  5  7  1  0
  8  9  1  0
  8 10  1  0
  8 11  1  0
 12 16  1  0
 16 17  1  0
 12 13  1  0
 12 14  1  0
 12 15  1  0
 17 18  1  0
 17 19  1  0
 17 20  1  0
M  CHG  1   8   1
M  END
>  <PDB_ID>  (1142) 
pdb4k6c

>  <RESIDUE_NAME>  (1142) 
LYS   MET

>  <FRAG_NAME>  (1142) 
ETAM   MSM

>  <FRAG_ATOM_NUM>  (1142) 
fragi: 11  fragj: 9

>  <atom.prop.CHAIN_ID>  (1142) 
A A A A A A A A A A A Z Z Z Z Z Z Z Z Z

>  <atom.prop.IS_HEAVY_ATOM>  (1142) 
1 0 0 0 1 0 0 1 0 0 0 1 0 0 0 1 1 0 0 0

>  <DIFUSE_FUNC_ATOM>  (1142) 
n/a

>  <FINAL_SINGLE_POINT_ENERGY>  (1142) 
0

>  <NONCOV_INTER_ENERGY_QM>  (1142) 
0

>  <FF_Energy>  (1142) 
-3.58

>  <QM_Energy>  (1142) 
-8.91

>  <source>  (1142) 
ETAM_MSM

>  <Index>  (1142) 
7067

$$$$
ETAM-pdb4k9d-C-LYS-224:MSM-pdb4k9d-C-MET-134
     RDKit          3D

 20 18  0  0  0  0  0  0  0  0999 V2000
    1.2496    0.8755   -0.0000 C   0  0  0  0  0  0  0  0  0  0  0  0
    1.2276    1.4623    0.8088 H   0  0  0  0  0  0  0  0  0  0  0  0
    1.2426    1.4410   -0.8242 H   0  0  0  0  0  0  0  0  0  0  0  0
    2.1752    0.3000    0.0168 H   0  0  0  0  0  0  0  0  0  0  0  0
    0.0000    0.0000    0.0000 C   0  0  0  0  0  0  0  0  0  0  0  0
    0.0155   -0.5844   -0.8164 H   0  0  0  0  0  0  0  0  0  0  0  0
    0.0147   -0.5843    0.8161 H   0  0  0  0  0  0  0  0  0  0  0  0
   -1.2496    0.8093    0.0000 N   0  0  0  0  0  4  0  0  0  0  0  0
   -1.4633    1.0888   -0.9352 H   0  0  0  0  0  0  0  0  0  0  0  0
   -2.0001    0.2595    0.3653 H   0  0  0  0  0  0  0  0  0  0  0  0
   -1.1196    1.6203    0.5700 H   0  0  0  0  0  0  0  0  0  0  0  0
   -2.5917    0.3290   -4.0235 C   0  0  0  0  0  0  0  0  0  0  0  0
   -3.2724    0.4529   -4.7707 H   0  0  0  0  0  0  0  0  0  0  0  0
   -3.1220    0.1643   -3.1701 H   0  0  0  0  0  0  0  0  0  0  0  0
   -1.9898   -0.5535   -4.2398 H   0  0  0  0  0  0  0  0  0  0  0  0
   -1.5533    1.7937   -3.8567 S   0  0  0  0  0  0  0  0  0  0  0  0
   -0.0241    1.1860   -4.5889 C   0  0  0  0  0  0  0  0  0  0  0  0
    0.6423    1.9295   -4.6277 H   0  0  0  0  0  0  0  0  0  0  0  0
    0.3373    0.4403   -4.0293 H   0  0  0  0  0  0  0  0  0  0  0  0
   -0.2087    0.8533   -5.5130 H   0  0  0  0  0  0  0  0  0  0  0  0
  1  5  1  0
  5  8  1  0
  1  2  1  0
  1  3  1  0
  1  4  1  0
  5  6  1  0
  5  7  1  0
  8  9  1  0
  8 10  1  0
  8 11  1  0
 12 16  1  0
 16 17  1  0
 12 13  1  0
 12 14  1  0
 12 15  1  0
 17 18  1  0
 17 19  1  0
 17 20  1  0
M  CHG  1   8   1
M  END
>  <PDB_ID>  (1143) 
pdb4k9d

>  <RESIDUE_NAME>  (1143) 
LYS   MET

>  <FRAG_NAME>  (1143) 
ETAM   MSM

>  <FRAG_ATOM_NUM>  (1143) 
fragi: 11  fragj: 9

>  <atom.prop.CHAIN_ID>  (1143) 
A A A A A A A A A A A Z Z Z Z Z Z Z Z Z

>  <atom.prop.IS_HEAVY_ATOM>  (1143) 
1 0 0 0 1 0 0 1 0 0 0 1 0 0 0 1 1 0 0 0

>  <DIFUSE_FUNC_ATOM>  (1143) 
n/a

>  <FINAL_SINGLE_POINT_ENERGY>  (1143) 
0

>  <NONCOV_INTER_ENERGY_QM>  (1143) 
0

>  <FF_Energy>  (1143) 
-3.64

>  <QM_Energy>  (1143) 
-10.47

>  <source>  (1143) 
ETAM_MSM

>  <Index>  (1143) 
7080

$$$$
ETAM-pdb4k9d-G-LYS-167:MSM-pdb4k9d-G-MET-275
     RDKit          3D

 20 18  0  0  0  0  0  0  0  0999 V2000
    1.2577    0.8796    0.0000 C   0  0  0  0  0  0  0  0  0  0  0  0
    1.3123    1.3466    0.8754 H   0  0  0  0  0  0  0  0  0  0  0  0
    1.1784    1.5380   -0.7405 H   0  0  0  0  0  0  0  0  0  0  0  0
    2.1641    0.2916   -0.1436 H   0  0  0  0  0  0  0  0  0  0  0  0
    0.0000    0.0000    0.0000 C   0  0  0  0  0  0  0  0  0  0  0  0
    0.0094   -0.5770   -0.8164 H   0  0  0  0  0  0  0  0  0  0  0  0
    0.0087   -0.5763    0.8167 H   0  0  0  0  0  0  0  0  0  0  0  0
   -1.2577    0.8286   -0.0000 N   0  0  0  0  0  4  0  0  0  0  0  0
   -1.9105    0.4246    0.6363 H   0  0  0  0  0  0  0  0  0  0  0  0
   -1.0326    1.7571    0.2843 H   0  0  0  0  0  0  0  0  0  0  0  0
   -1.6383    0.8370   -0.9210 H   0  0  0  0  0  0  0  0  0  0  0  0
   -1.0095    1.8143   -4.7112 C   0  0  0  0  0  0  0  0  0  0  0  0
   -1.7338    1.1291   -4.6989 H   0  0  0  0  0  0  0  0  0  0  0  0
   -0.1395    1.3829   -4.9416 H   0  0  0  0  0  0  0  0  0  0  0  0
   -1.2445    2.5745   -5.4561 H   0  0  0  0  0  0  0  0  0  0  0  0
   -0.9047    2.6670   -3.1294 S   0  0  0  0  0  0  0  0  0  0  0  0
    0.7201    3.3964   -3.2629 C   0  0  0  0  0  0  0  0  0  0  0  0
    0.7897    3.9125   -4.1188 H   0  0  0  0  0  0  0  0  0  0  0  0
    0.8771    4.0157   -2.4908 H   0  0  0  0  0  0  0  0  0  0  0  0
    1.4167    2.6757   -3.2547 H   0  0  0  0  0  0  0  0  0  0  0  0
  1  5  1  0
  5  8  1  0
  1  2  1  0
  1  3  1  0
  1  4  1  0
  5  6  1  0
  5  7  1  0
  8  9  1  0
  8 10  1  0
  8 11  1  0
 12 16  1  0
 16 17  1  0
 12 13  1  0
 12 14  1  0
 12 15  1  0
 17 18  1  0
 17 19  1  0
 17 20  1  0
M  CHG  1   8   1
M  END
>  <PDB_ID>  (1144) 
pdb4k9d

>  <RESIDUE_NAME>  (1144) 
LYS   MET

>  <FRAG_NAME>  (1144) 
ETAM   MSM

>  <FRAG_ATOM_NUM>  (1144) 
fragi: 11  fragj: 9

>  <atom.prop.CHAIN_ID>  (1144) 
A A A A A A A A A A A Z Z Z Z Z Z Z Z Z

>  <atom.prop.IS_HEAVY_ATOM>  (1144) 
1 0 0 0 1 0 0 1 0 0 0 1 0 0 0 1 1 0 0 0

>  <DIFUSE_FUNC_ATOM>  (1144) 
n/a

>  <FINAL_SINGLE_POINT_ENERGY>  (1144) 
0

>  <NONCOV_INTER_ENERGY_QM>  (1144) 
0

>  <FF_Energy>  (1144) 
-5.4

>  <QM_Energy>  (1144) 
-13.04

>  <source>  (1144) 
ETAM_MSM

>  <Index>  (1144) 
7087

$$$$
ETAM-pdb4k9d-H-LYS-264:MSM-pdb4k9d-H-MET-260
     RDKit          3D

 20 18  0  0  0  0  0  0  0  0999 V2000
    1.2327    0.8741   -0.0000 C   0  0  0  0  0  0  0  0  0  0  0  0
    1.2145    1.4524    0.8165 H   0  0  0  0  0  0  0  0  0  0  0  0
    1.2144    1.4529   -0.8165 H   0  0  0  0  0  0  0  0  0  0  0  0
    2.1572    0.2966    0.0007 H   0  0  0  0  0  0  0  0  0  0  0  0
    0.0000    0.0000    0.0000 C   0  0  0  0  0  0  0  0  0  0  0  0
    0.0077   -0.5787   -0.8164 H   0  0  0  0  0  0  0  0  0  0  0  0
    0.0076   -0.5787    0.8157 H   0  0  0  0  0  0  0  0  0  0  0  0
   -1.2327    0.8279    0.0000 N   0  0  0  0  0  4  0  0  0  0  0  0
   -1.5027    1.0226    0.9427 H   0  0  0  0  0  0  0  0  0  0  0  0
   -1.0563    1.6876   -0.4801 H   0  0  0  0  0  0  0  0  0  0  0  0
   -1.9679    0.3315   -0.4620 H   0  0  0  0  0  0  0  0  0  0  0  0
    0.2494   -2.4200    2.2874 C   0  0  0  0  0  0  0  0  0  0  0  0
   -0.7068   -2.6135    1.9852 H   0  0  0  0  0  0  0  0  0  0  0  0
    0.5367   -1.5731    1.7934 H   0  0  0  0  0  0  0  0  0  0  0  0
    0.2415   -2.2145    3.3578 H   0  0  0  0  0  0  0  0  0  0  0  0
    1.3405   -3.8002    1.8746 S   0  0  0  0  0  0  0  0  0  0  0  0
    0.4005   -5.1548    2.5806 C   0  0  0  0  0  0  0  0  0  0  0  0
    0.3179   -5.0251    3.5698 H   0  0  0  0  0  0  0  0  0  0  0  0
   -0.5127   -5.1779    2.1705 H   0  0  0  0  0  0  0  0  0  0  0  0
    0.8697   -6.0191    2.3963 H   0  0  0  0  0  0  0  0  0  0  0  0
  1  5  1  0
  5  8  1  0
  1  2  1  0
  1  3  1  0
  1  4  1  0
  5  6  1  0
  5  7  1  0
  8  9  1  0
  8 10  1  0
  8 11  1  0
 12 16  1  0
 16 17  1  0
 12 13  1  0
 12 14  1  0
 12 15  1  0
 17 18  1  0
 17 19  1  0
 17 20  1  0
M  CHG  1   8   1
M  END
>  <PDB_ID>  (1145) 
pdb4k9d

>  <RESIDUE_NAME>  (1145) 
LYS   MET

>  <FRAG_NAME>  (1145) 
ETAM   MSM

>  <FRAG_ATOM_NUM>  (1145) 
fragi: 11  fragj: 9

>  <atom.prop.CHAIN_ID>  (1145) 
A A A A A A A A A A A Z Z Z Z Z Z Z Z Z

>  <atom.prop.IS_HEAVY_ATOM>  (1145) 
1 0 0 0 1 0 0 1 0 0 0 1 0 0 0 1 1 0 0 0

>  <DIFUSE_FUNC_ATOM>  (1145) 
n/a

>  <FINAL_SINGLE_POINT_ENERGY>  (1145) 
0

>  <NONCOV_INTER_ENERGY_QM>  (1145) 
0

>  <FF_Energy>  (1145) 
34.73

>  <QM_Energy>  (1145) 
3.82

>  <source>  (1145) 
ETAM_MSM

>  <Index>  (1145) 
7089

$$$$
ETAM-pdb4kc7-A-LYS-55:MSM-pdb4kc7-A-MET-41
     RDKit          3D

 20 18  0  0  0  0  0  0  0  0999 V2000
    1.2812    0.8257   -0.0000 C   0  0  0  0  0  0  0  0  0  0  0  0
    2.0628    0.2063    0.1218 H   0  0  0  0  0  0  0  0  0  0  0  0
    1.2512    1.4652    0.7730 H   0  0  0  0  0  0  0  0  0  0  0  0
    1.4453    1.4017   -0.9106 H   0  0  0  0  0  0  0  0  0  0  0  0
    0.0000    0.0000    0.0000 C   0  0  0  0  0  0  0  0  0  0  0  0
    0.0008   -0.6059   -0.8156 H   0  0  0  0  0  0  0  0  0  0  0  0
    0.0010   -0.6062    0.8162 H   0  0  0  0  0  0  0  0  0  0  0  0
   -1.2812    0.7946    0.0000 N   0  0  0  0  0  4  0  0  0  0  0  0
   -1.9053    0.3983    0.6682 H   0  0  0  0  0  0  0  0  0  0  0  0
   -1.0742    1.7387    0.2419 H   0  0  0  0  0  0  0  0  0  0  0  0
   -1.6847    0.7554   -0.9106 H   0  0  0  0  0  0  0  0  0  0  0  0
   -2.0246    3.0283   -4.0329 C   0  0  0  0  0  0  0  0  0  0  0  0
   -2.5348    3.3984   -3.2400 H   0  0  0  0  0  0  0  0  0  0  0  0
   -2.6440    2.3930   -4.5216 H   0  0  0  0  0  0  0  0  0  0  0  0
   -1.7871    3.8559   -4.7013 H   0  0  0  0  0  0  0  0  0  0  0  0
   -0.5232    2.2215   -3.5276 S   0  0  0  0  0  0  0  0  0  0  0  0
    0.1372    1.4359   -4.9846 C   0  0  0  0  0  0  0  0  0  0  0  0
   -0.4824    0.7082   -5.2896 H   0  0  0  0  0  0  0  0  0  0  0  0
    0.2369    2.1105   -5.7196 H   0  0  0  0  0  0  0  0  0  0  0  0
    1.0346    1.0388   -4.7796 H   0  0  0  0  0  0  0  0  0  0  0  0
  1  5  1  0
  5  8  1  0
  1  2  1  0
  1  3  1  0
  1  4  1  0
  5  6  1  0
  5  7  1  0
  8  9  1  0
  8 10  1  0
  8 11  1  0
 12 16  1  0
 16 17  1  0
 12 13  1  0
 12 14  1  0
 12 15  1  0
 17 18  1  0
 17 19  1  0
 17 20  1  0
M  CHG  1   8   1
M  END
>  <PDB_ID>  (1146) 
pdb4kc7

>  <RESIDUE_NAME>  (1146) 
LYS   MET

>  <FRAG_NAME>  (1146) 
ETAM   MSM

>  <FRAG_ATOM_NUM>  (1146) 
fragi: 11  fragj: 9

>  <atom.prop.CHAIN_ID>  (1146) 
A A A A A A A A A A A Z Z Z Z Z Z Z Z Z

>  <atom.prop.IS_HEAVY_ATOM>  (1146) 
1 0 0 0 1 0 0 1 0 0 0 1 0 0 0 1 1 0 0 0

>  <DIFUSE_FUNC_ATOM>  (1146) 
n/a

>  <FINAL_SINGLE_POINT_ENERGY>  (1146) 
0

>  <NONCOV_INTER_ENERGY_QM>  (1146) 
0

>  <FF_Energy>  (1146) 
-4.85

>  <QM_Energy>  (1146) 
-11.72

>  <source>  (1146) 
ETAM_MSM

>  <Index>  (1146) 
7098

$$$$
ETAM-pdb3n71-A-LYS-418:MSM-pdb3n71-A-MET-382
     RDKit          3D

 20 18  0  0  0  0  0  0  0  0999 V2000
    1.2616    0.8564   -0.0000 C   0  0  0  0  0  0  0  0  0  0  0  0
    2.0473    0.2557   -0.0964 H   0  0  0  0  0  0  0  0  0  0  0  0
    1.3035    1.3517    0.8599 H   0  0  0  0  0  0  0  0  0  0  0  0
    1.2501    1.5680   -0.8256 H   0  0  0  0  0  0  0  0  0  0  0  0
    0.0000    0.0000    0.0000 C   0  0  0  0  0  0  0  0  0  0  0  0
    0.0111   -0.5942   -0.8162 H   0  0  0  0  0  0  0  0  0  0  0  0
    0.0104   -0.5938    0.8167 H   0  0  0  0  0  0  0  0  0  0  0  0
   -1.2616    0.8003    0.0000 N   0  0  0  0  0  4  0  0  0  0  0  0
   -1.9495    0.3298    0.5509 H   0  0  0  0  0  0  0  0  0  0  0  0
   -1.0786    1.7028    0.3870 H   0  0  0  0  0  0  0  0  0  0  0  0
   -1.5898    0.8970   -0.9386 H   0  0  0  0  0  0  0  0  0  0  0  0
   -1.3560   -2.3542    3.4873 C   0  0  0  0  0  0  0  0  0  0  0  0
   -0.5503   -2.8069    3.0663 H   0  0  0  0  0  0  0  0  0  0  0  0
   -2.1827   -2.7573    3.0555 H   0  0  0  0  0  0  0  0  0  0  0  0
   -1.3692   -2.5698    4.5556 H   0  0  0  0  0  0  0  0  0  0  0  0
   -1.2999   -0.5867    3.2311 S   0  0  0  0  0  0  0  0  0  0  0  0
    0.4161   -0.2847    3.5705 C   0  0  0  0  0  0  0  0  0  0  0  0
    0.5554    0.6809    3.8067 H   0  0  0  0  0  0  0  0  0  0  0  0
    0.7198   -0.8539    4.3392 H   0  0  0  0  0  0  0  0  0  0  0  0
    0.9702   -0.5053    2.7628 H   0  0  0  0  0  0  0  0  0  0  0  0
  1  5  1  0
  5  8  1  0
  1  2  1  0
  1  3  1  0
  1  4  1  0
  5  6  1  0
  5  7  1  0
  8  9  1  0
  8 10  1  0
  8 11  1  0
 12 16  1  0
 16 17  1  0
 12 13  1  0
 12 14  1  0
 12 15  1  0
 17 18  1  0
 17 19  1  0
 17 20  1  0
M  CHG  1   8   1
M  END
>  <PDB_ID>  (1147) 
pdb3n71

>  <RESIDUE_NAME>  (1147) 
LYS   MET

>  <FRAG_NAME>  (1147) 
ETAM   MSM

>  <FRAG_ATOM_NUM>  (1147) 
fragi: 11  fragj: 9

>  <atom.prop.CHAIN_ID>  (1147) 
A A A A A A A A A A A Z Z Z Z Z Z Z Z Z

>  <atom.prop.IS_HEAVY_ATOM>  (1147) 
1 0 0 0 1 0 0 1 0 0 0 1 0 0 0 1 1 0 0 0

>  <DIFUSE_FUNC_ATOM>  (1147) 
n/a

>  <FINAL_SINGLE_POINT_ENERGY>  (1147) 
0

>  <NONCOV_INTER_ENERGY_QM>  (1147) 
0

>  <FF_Energy>  (1147) 
-4.14

>  <QM_Energy>  (1147) 
-12.4

>  <source>  (1147) 
ETAM_MSM

>  <Index>  (1147) 
7112

$$$$
ETAM-pdb3n75-E-LYS-246:MSM-pdb3n75-E-MET-648
     RDKit          3D

 20 18  0  0  0  0  0  0  0  0999 V2000
    1.2837    0.8807   -0.0000 C   0  0  0  0  0  0  0  0  0  0  0  0
    2.0743    0.2752   -0.1147 H   0  0  0  0  0  0  0  0  0  0  0  0
    1.3446    1.3373    0.8898 H   0  0  0  0  0  0  0  0  0  0  0  0
    1.3186    1.6413   -0.7800 H   0  0  0  0  0  0  0  0  0  0  0  0
    0.0000    0.0000    0.0000 C   0  0  0  0  0  0  0  0  0  0  0  0
    0.0127   -0.5798   -0.8160 H   0  0  0  0  0  0  0  0  0  0  0  0
    0.0126   -0.5795    0.8159 H   0  0  0  0  0  0  0  0  0  0  0  0
   -1.2837    0.8189   -0.0000 N   0  0  0  0  0  4  0  0  0  0  0  0
   -1.3026    1.3733   -0.8248 H   0  0  0  0  0  0  0  0  0  0  0  0
   -2.0559    0.1931    0.0157 H   0  0  0  0  0  0  0  0  0  0  0  0
   -1.2875    1.3975    0.8087 H   0  0  0  0  0  0  0  0  0  0  0  0
    1.8294   -0.2071    4.6938 C   0  0  0  0  0  0  0  0  0  0  0  0
    1.5440    0.4814    5.3995 H   0  0  0  0  0  0  0  0  0  0  0  0
    2.3350   -0.9349    5.2111 H   0  0  0  0  0  0  0  0  0  0  0  0
    0.9223   -0.6597    4.2931 H   0  0  0  0  0  0  0  0  0  0  0  0
    2.8743    0.5444    3.4317 S   0  0  0  0  0  0  0  0  0  0  0  0
    1.9296    2.0275    3.1963 C   0  0  0  0  0  0  0  0  0  0  0  0
    2.5374    2.8269    3.1984 H   0  0  0  0  0  0  0  0  0  0  0  0
    1.4439    1.9910    2.3178 H   0  0  0  0  0  0  0  0  0  0  0  0
    1.2573    2.1286    3.9357 H   0  0  0  0  0  0  0  0  0  0  0  0
  1  5  1  0
  5  8  1  0
  1  2  1  0
  1  3  1  0
  1  4  1  0
  5  6  1  0
  5  7  1  0
  8  9  1  0
  8 10  1  0
  8 11  1  0
 12 16  1  0
 16 17  1  0
 12 13  1  0
 12 14  1  0
 12 15  1  0
 17 18  1  0
 17 19  1  0
 17 20  1  0
M  CHG  1   8   1
M  END
>  <PDB_ID>  (1148) 
pdb3n75

>  <RESIDUE_NAME>  (1148) 
LYS   MET

>  <FRAG_NAME>  (1148) 
ETAM   MSM

>  <FRAG_ATOM_NUM>  (1148) 
fragi: 11  fragj: 9

>  <atom.prop.CHAIN_ID>  (1148) 
A A A A A A A A A A A Z Z Z Z Z Z Z Z Z

>  <atom.prop.IS_HEAVY_ATOM>  (1148) 
1 0 0 0 1 0 0 1 0 0 0 1 0 0 0 1 1 0 0 0

>  <DIFUSE_FUNC_ATOM>  (1148) 
n/a

>  <FINAL_SINGLE_POINT_ENERGY>  (1148) 
0

>  <NONCOV_INTER_ENERGY_QM>  (1148) 
0

>  <FF_Energy>  (1148) 
14.22

>  <QM_Energy>  (1148) 
0.5

>  <source>  (1148) 
ETAM_MSM

>  <Index>  (1148) 
7131

$$$$
ETAM-pdb4kc7-B-LYS-55:MSM-pdb4kc7-B-MET-41
     RDKit          3D

 20 18  0  0  0  0  0  0  0  0999 V2000
    1.2729    0.8520   -0.0000 C   0  0  0  0  0  0  0  0  0  0  0  0
    2.0521    0.2509    0.0558 H   0  0  0  0  0  0  0  0  0  0  0  0
    1.2323    1.4743    0.7635 H   0  0  0  0  0  0  0  0  0  0  0  0
    1.3291    1.4245   -0.9258 H   0  0  0  0  0  0  0  0  0  0  0  0
    0.0000    0.0000    0.0000 C   0  0  0  0  0  0  0  0  0  0  0  0
    0.0105   -0.5963   -0.8165 H   0  0  0  0  0  0  0  0  0  0  0  0
    0.0108   -0.5965    0.8160 H   0  0  0  0  0  0  0  0  0  0  0  0
   -1.2729    0.7965    0.0000 N   0  0  0  0  0  4  0  0  0  0  0  0
   -1.9455    0.3338    0.5727 H   0  0  0  0  0  0  0  0  0  0  0  0
   -1.0867    1.7072    0.3628 H   0  0  0  0  0  0  0  0  0  0  0  0
   -1.6125    0.8660   -0.9351 H   0  0  0  0  0  0  0  0  0  0  0  0
   -2.6874    3.7707   -2.4764 C   0  0  0  0  0  0  0  0  0  0  0  0
   -2.6187    4.3068   -1.6117 H   0  0  0  0  0  0  0  0  0  0  0  0
   -3.6178    3.3524   -2.4822 H   0  0  0  0  0  0  0  0  0  0  0  0
   -2.5981    4.4513   -3.3231 H   0  0  0  0  0  0  0  0  0  0  0  0
   -1.4146    2.4799   -2.5225 S   0  0  0  0  0  0  0  0  0  0  0  0
   -1.8071    1.7059   -4.0936 C   0  0  0  0  0  0  0  0  0  0  0  0
   -1.1319    1.9813   -4.7793 H   0  0  0  0  0  0  0  0  0  0  0  0
   -1.7893    0.7117   -3.9896 H   0  0  0  0  0  0  0  0  0  0  0  0
   -2.7188    1.9936   -4.3888 H   0  0  0  0  0  0  0  0  0  0  0  0
  1  5  1  0
  5  8  1  0
  1  2  1  0
  1  3  1  0
  1  4  1  0
  5  6  1  0
  5  7  1  0
  8  9  1  0
  8 10  1  0
  8 11  1  0
 12 16  1  0
 16 17  1  0
 12 13  1  0
 12 14  1  0
 12 15  1  0
 17 18  1  0
 17 19  1  0
 17 20  1  0
M  CHG  1   8   1
M  END
>  <PDB_ID>  (1149) 
pdb4kc7

>  <RESIDUE_NAME>  (1149) 
LYS   MET

>  <FRAG_NAME>  (1149) 
ETAM   MSM

>  <FRAG_ATOM_NUM>  (1149) 
fragi: 11  fragj: 9

>  <atom.prop.CHAIN_ID>  (1149) 
A A A A A A A A A A A Z Z Z Z Z Z Z Z Z

>  <atom.prop.IS_HEAVY_ATOM>  (1149) 
1 0 0 0 1 0 0 1 0 0 0 1 0 0 0 1 1 0 0 0

>  <DIFUSE_FUNC_ATOM>  (1149) 
n/a

>  <FINAL_SINGLE_POINT_ENERGY>  (1149) 
0

>  <NONCOV_INTER_ENERGY_QM>  (1149) 
0

>  <FF_Energy>  (1149) 
-4.27

>  <QM_Energy>  (1149) 
-14.79

>  <source>  (1149) 
ETAM_MSM

>  <Index>  (1149) 
7132

$$$$
ETAM-pdb3ng3-B-LYS-70:MSM-pdb3ng3-A-MET-47
     RDKit          3D

 20 18  0  0  0  0  0  0  0  0999 V2000
    1.2484    0.8696   -0.0000 C   0  0  0  0  0  0  0  0  0  0  0  0
    1.3302    1.3084    0.8921 H   0  0  0  0  0  0  0  0  0  0  0  0
    1.1537    1.5619   -0.7113 H   0  0  0  0  0  0  0  0  0  0  0  0
    2.1535    0.2926   -0.1901 H   0  0  0  0  0  0  0  0  0  0  0  0
    0.0000    0.0000    0.0000 C   0  0  0  0  0  0  0  0  0  0  0  0
    0.0049   -0.5793   -0.8163 H   0  0  0  0  0  0  0  0  0  0  0  0
    0.0046   -0.5793    0.8164 H   0  0  0  0  0  0  0  0  0  0  0  0
   -1.2484    0.8297   -0.0000 N   0  0  0  0  0  4  0  0  0  0  0  0
   -1.6272    0.8487   -0.9225 H   0  0  0  0  0  0  0  0  0  0  0  0
   -1.9094    0.4253    0.6293 H   0  0  0  0  0  0  0  0  0  0  0  0
   -1.0244    1.7566    0.2935 H   0  0  0  0  0  0  0  0  0  0  0  0
   -0.5778    0.3789    4.4929 C   0  0  0  0  0  0  0  0  0  0  0  0
    0.4179    0.4608    4.2239 H   0  0  0  0  0  0  0  0  0  0  0  0
   -0.8032   -0.6178    4.3354 H   0  0  0  0  0  0  0  0  0  0  0  0
   -0.6395    0.5601    5.5659 H   0  0  0  0  0  0  0  0  0  0  0  0
   -1.6181    1.4494    3.4615 S   0  0  0  0  0  0  0  0  0  0  0  0
   -3.2249    0.7388    3.7039 C   0  0  0  0  0  0  0  0  0  0  0  0
   -3.6613    0.5620    2.8170 H   0  0  0  0  0  0  0  0  0  0  0  0
   -3.1468   -0.1277    4.2056 H   0  0  0  0  0  0  0  0  0  0  0  0
   -3.8045    1.3677    4.2307 H   0  0  0  0  0  0  0  0  0  0  0  0
  1  5  1  0
  5  8  1  0
  1  2  1  0
  1  3  1  0
  1  4  1  0
  5  6  1  0
  5  7  1  0
  8  9  1  0
  8 10  1  0
  8 11  1  0
 12 16  1  0
 16 17  1  0
 12 13  1  0
 12 14  1  0
 12 15  1  0
 17 18  1  0
 17 19  1  0
 17 20  1  0
M  CHG  1   8   1
M  END
>  <PDB_ID>  (1150) 
pdb3ng3

>  <RESIDUE_NAME>  (1150) 
LYS   MET

>  <FRAG_NAME>  (1150) 
ETAM   MSM

>  <FRAG_ATOM_NUM>  (1150) 
fragi: 11  fragj: 9

>  <atom.prop.CHAIN_ID>  (1150) 
A A A A A A A A A A A Z Z Z Z Z Z Z Z Z

>  <atom.prop.IS_HEAVY_ATOM>  (1150) 
1 0 0 0 1 0 0 1 0 0 0 1 0 0 0 1 1 0 0 0

>  <DIFUSE_FUNC_ATOM>  (1150) 
n/a

>  <FINAL_SINGLE_POINT_ENERGY>  (1150) 
0

>  <NONCOV_INTER_ENERGY_QM>  (1150) 
0

>  <FF_Energy>  (1150) 
-4.92

>  <QM_Energy>  (1150) 
-12.08

>  <source>  (1150) 
ETAM_MSM

>  <Index>  (1150) 
7172

$$$$
ETAM-pdb3ng3-A-LYS-70:MSM-pdb3ng3-B-MET-47
     RDKit          3D

 20 18  0  0  0  0  0  0  0  0999 V2000
    1.2422    0.8626    0.0000 C   0  0  0  0  0  0  0  0  0  0  0  0
    1.2073    1.4830    0.7805 H   0  0  0  0  0  0  0  0  0  0  0  0
    1.2746    1.3852   -0.8483 H   0  0  0  0  0  0  0  0  0  0  0  0
    2.1555    0.2724    0.0741 H   0  0  0  0  0  0  0  0  0  0  0  0
    0.0000    0.0000    0.0000 C   0  0  0  0  0  0  0  0  0  0  0  0
    0.0191   -0.5959   -0.8158 H   0  0  0  0  0  0  0  0  0  0  0  0
    0.0187   -0.5962    0.8164 H   0  0  0  0  0  0  0  0  0  0  0  0
   -1.2422    0.7868    0.0000 N   0  0  0  0  0  4  0  0  0  0  0  0
   -1.8305    0.4938   -0.7575 H   0  0  0  0  0  0  0  0  0  0  0  0
   -1.7300    0.6523    0.8654 H   0  0  0  0  0  0  0  0  0  0  0  0
   -1.0287    1.7607   -0.1084 H   0  0  0  0  0  0  0  0  0  0  0  0
   -0.7229    3.2646    3.4727 C   0  0  0  0  0  0  0  0  0  0  0  0
    0.2502    3.3792    3.2121 H   0  0  0  0  0  0  0  0  0  0  0  0
   -0.8086    2.3589    3.9210 H   0  0  0  0  0  0  0  0  0  0  0  0
   -0.9614    4.0278    4.2135 H   0  0  0  0  0  0  0  0  0  0  0  0
   -1.8076    3.3935    2.0381 S   0  0  0  0  0  0  0  0  0  0  0  0
   -3.3066    2.8440    2.7904 C   0  0  0  0  0  0  0  0  0  0  0  0
   -3.1076    2.1868    3.5248 H   0  0  0  0  0  0  0  0  0  0  0  0
   -3.8061    3.6237    3.1832 H   0  0  0  0  0  0  0  0  0  0  0  0
   -3.8955    2.3961    2.1087 H   0  0  0  0  0  0  0  0  0  0  0  0
  1  5  1  0
  5  8  1  0
  1  2  1  0
  1  3  1  0
  1  4  1  0
  5  6  1  0
  5  7  1  0
  8  9  1  0
  8 10  1  0
  8 11  1  0
 12 16  1  0
 16 17  1  0
 12 13  1  0
 12 14  1  0
 12 15  1  0
 17 18  1  0
 17 19  1  0
 17 20  1  0
M  CHG  1   8   1
M  END
>  <PDB_ID>  (1151) 
pdb3ng3

>  <RESIDUE_NAME>  (1151) 
LYS   MET

>  <FRAG_NAME>  (1151) 
ETAM   MSM

>  <FRAG_ATOM_NUM>  (1151) 
fragi: 11  fragj: 9

>  <atom.prop.CHAIN_ID>  (1151) 
A A A A A A A A A A A Z Z Z Z Z Z Z Z Z

>  <atom.prop.IS_HEAVY_ATOM>  (1151) 
1 0 0 0 1 0 0 1 0 0 0 1 0 0 0 1 1 0 0 0

>  <DIFUSE_FUNC_ATOM>  (1151) 
n/a

>  <FINAL_SINGLE_POINT_ENERGY>  (1151) 
0

>  <NONCOV_INTER_ENERGY_QM>  (1151) 
0

>  <FF_Energy>  (1151) 
-5.11

>  <QM_Energy>  (1151) 
-12.68

>  <source>  (1151) 
ETAM_MSM

>  <Index>  (1151) 
7173

$$$$
ETAM-pdb3ng3-D-LYS-70:MSM-pdb3ng3-C-MET-47
     RDKit          3D

 20 18  0  0  0  0  0  0  0  0999 V2000
    1.2321    0.8928   -0.0000 C   0  0  0  0  0  0  0  0  0  0  0  0
    1.3234    1.3162    0.9025 H   0  0  0  0  0  0  0  0  0  0  0  0
    1.1133    1.6066   -0.6914 H   0  0  0  0  0  0  0  0  0  0  0  0
    2.1563    0.3579   -0.2189 H   0  0  0  0  0  0  0  0  0  0  0  0
    0.0000    0.0000    0.0000 C   0  0  0  0  0  0  0  0  0  0  0  0
    0.0218   -0.5776   -0.8167 H   0  0  0  0  0  0  0  0  0  0  0  0
    0.0212   -0.5776    0.8163 H   0  0  0  0  0  0  0  0  0  0  0  0
   -1.2321    0.8114    0.0000 N   0  0  0  0  0  4  0  0  0  0  0  0
   -1.6328    0.8180   -0.9183 H   0  0  0  0  0  0  0  0  0  0  0  0
   -1.8927    0.4232    0.6456 H   0  0  0  0  0  0  0  0  0  0  0  0
   -1.0177    1.7512    0.2730 H   0  0  0  0  0  0  0  0  0  0  0  0
   -0.6199    0.6533    4.2556 C   0  0  0  0  0  0  0  0  0  0  0  0
    0.3737    0.8063    4.0635 H   0  0  0  0  0  0  0  0  0  0  0  0
   -0.7853   -0.3433    4.0907 H   0  0  0  0  0  0  0  0  0  0  0  0
   -0.7849    0.8453    5.3158 H   0  0  0  0  0  0  0  0  0  0  0  0
   -1.6571    1.6729    3.1780 S   0  0  0  0  0  0  0  0  0  0  0  0
   -3.2530    0.9053    3.4636 C   0  0  0  0  0  0  0  0  0  0  0  0
   -3.1681    0.2133    4.1818 H   0  0  0  0  0  0  0  0  0  0  0  0
   -3.9126    1.6015    3.7489 H   0  0  0  0  0  0  0  0  0  0  0  0
   -3.5715    0.4718    2.6203 H   0  0  0  0  0  0  0  0  0  0  0  0
  1  5  1  0
  5  8  1  0
  1  2  1  0
  1  3  1  0
  1  4  1  0
  5  6  1  0
  5  7  1  0
  8  9  1  0
  8 10  1  0
  8 11  1  0
 12 16  1  0
 16 17  1  0
 12 13  1  0
 12 14  1  0
 12 15  1  0
 17 18  1  0
 17 19  1  0
 17 20  1  0
M  CHG  1   8   1
M  END
>  <PDB_ID>  (1152) 
pdb3ng3

>  <RESIDUE_NAME>  (1152) 
LYS   MET

>  <FRAG_NAME>  (1152) 
ETAM   MSM

>  <FRAG_ATOM_NUM>  (1152) 
fragi: 11  fragj: 9

>  <atom.prop.CHAIN_ID>  (1152) 
A A A A A A A A A A A Z Z Z Z Z Z Z Z Z

>  <atom.prop.IS_HEAVY_ATOM>  (1152) 
1 0 0 0 1 0 0 1 0 0 0 1 0 0 0 1 1 0 0 0

>  <DIFUSE_FUNC_ATOM>  (1152) 
n/a

>  <FINAL_SINGLE_POINT_ENERGY>  (1152) 
0

>  <NONCOV_INTER_ENERGY_QM>  (1152) 
0

>  <FF_Energy>  (1152) 
-5.06

>  <QM_Energy>  (1152) 
-12.82

>  <source>  (1152) 
ETAM_MSM

>  <Index>  (1152) 
7174

$$$$
ETAM-pdb3ng3-C-LYS-70:MSM-pdb3ng3-D-MET-47
     RDKit          3D

 20 18  0  0  0  0  0  0  0  0999 V2000
    1.2336    0.8312    0.0000 C   0  0  0  0  0  0  0  0  0  0  0  0
    1.3254    1.2907    0.8884 H   0  0  0  0  0  0  0  0  0  0  0  0
    1.1647    1.5288   -0.7190 H   0  0  0  0  0  0  0  0  0  0  0  0
    2.1382    0.2493   -0.1762 H   0  0  0  0  0  0  0  0  0  0  0  0
    0.0000    0.0000    0.0000 C   0  0  0  0  0  0  0  0  0  0  0  0
   -0.0135   -0.5902   -0.8161 H   0  0  0  0  0  0  0  0  0  0  0  0
   -0.0142   -0.5893    0.8165 H   0  0  0  0  0  0  0  0  0  0  0  0
   -1.2336    0.8379    0.0000 N   0  0  0  0  0  4  0  0  0  0  0  0
   -0.9799    1.7991    0.0995 H   0  0  0  0  0  0  0  0  0  0  0  0
   -1.7212    0.7074   -0.8615 H   0  0  0  0  0  0  0  0  0  0  0  0
   -1.8186    0.5644    0.7624 H   0  0  0  0  0  0  0  0  0  0  0  0
   -0.5758    1.7676    4.3931 C   0  0  0  0  0  0  0  0  0  0  0  0
    0.4299    1.8496    4.1905 H   0  0  0  0  0  0  0  0  0  0  0  0
   -0.7401    0.7590    4.5156 H   0  0  0  0  0  0  0  0  0  0  0  0
   -0.7631    2.2549    5.3499 H   0  0  0  0  0  0  0  0  0  0  0  0
   -1.5622    2.4318    3.0731 S   0  0  0  0  0  0  0  0  0  0  0  0
   -3.1907    1.8770    3.4861 C   0  0  0  0  0  0  0  0  0  0  0  0
   -3.6234    2.5184    4.1265 H   0  0  0  0  0  0  0  0  0  0  0  0
   -3.7570    1.8160    2.6583 H   0  0  0  0  0  0  0  0  0  0  0  0
   -3.1491    0.9694    3.9164 H   0  0  0  0  0  0  0  0  0  0  0  0
  1  5  1  0
  5  8  1  0
  1  2  1  0
  1  3  1  0
  1  4  1  0
  5  6  1  0
  5  7  1  0
  8  9  1  0
  8 10  1  0
  8 11  1  0
 12 16  1  0
 16 17  1  0
 12 13  1  0
 12 14  1  0
 12 15  1  0
 17 18  1  0
 17 19  1  0
 17 20  1  0
M  CHG  1   8   1
M  END
>  <PDB_ID>  (1153) 
pdb3ng3

>  <RESIDUE_NAME>  (1153) 
LYS   MET

>  <FRAG_NAME>  (1153) 
ETAM   MSM

>  <FRAG_ATOM_NUM>  (1153) 
fragi: 11  fragj: 9

>  <atom.prop.CHAIN_ID>  (1153) 
A A A A A A A A A A A Z Z Z Z Z Z Z Z Z

>  <atom.prop.IS_HEAVY_ATOM>  (1153) 
1 0 0 0 1 0 0 1 0 0 0 1 0 0 0 1 1 0 0 0

>  <DIFUSE_FUNC_ATOM>  (1153) 
n/a

>  <FINAL_SINGLE_POINT_ENERGY>  (1153) 
0

>  <NONCOV_INTER_ENERGY_QM>  (1153) 
0

>  <FF_Energy>  (1153) 
-5.09

>  <QM_Energy>  (1153) 
-12.56

>  <source>  (1153) 
ETAM_MSM

>  <Index>  (1153) 
7175

$$$$
ETAM-pdb3ngl-A-LYS-48:MSM-pdb3ngl-A-MET-89
     RDKit          3D

 20 18  0  0  0  0  0  0  0  0999 V2000
    1.2176    0.8745    0.0000 C   0  0  0  0  0  0  0  0  0  0  0  0
    1.2995    1.3078    0.8863 H   0  0  0  0  0  0  0  0  0  0  0  0
    1.1267    1.5480   -0.7197 H   0  0  0  0  0  0  0  0  0  0  0  0
    2.0962    0.2570   -0.1864 H   0  0  0  0  0  0  0  0  0  0  0  0
    0.0000    0.0000    0.0000 C   0  0  0  0  0  0  0  0  0  0  0  0
    0.0177   -0.5861   -0.8166 H   0  0  0  0  0  0  0  0  0  0  0  0
    0.0177   -0.5869    0.8159 H   0  0  0  0  0  0  0  0  0  0  0  0
   -1.2176    0.8038    0.0000 N   0  0  0  0  0  4  0  0  0  0  0  0
   -1.2203    1.4267    0.7880 H   0  0  0  0  0  0  0  0  0  0  0  0
   -1.2736    1.3481   -0.8430 H   0  0  0  0  0  0  0  0  0  0  0  0
   -2.0253    0.2094    0.0553 H   0  0  0  0  0  0  0  0  0  0  0  0
   -3.3564    4.4192    1.6662 C   0  0  0  0  0  0  0  0  0  0  0  0
   -4.1800    3.8125    1.4932 H   0  0  0  0  0  0  0  0  0  0  0  0
   -3.6874    5.3676    1.4068 H   0  0  0  0  0  0  0  0  0  0  0  0
   -3.1190    4.4026    2.7299 H   0  0  0  0  0  0  0  0  0  0  0  0
   -1.9955    3.9310    0.6360 S   0  0  0  0  0  0  0  0  0  0  0  0
   -2.9736    3.4409   -0.7752 C   0  0  0  0  0  0  0  0  0  0  0  0
   -2.3985    2.9486   -1.4307 H   0  0  0  0  0  0  0  0  0  0  0  0
   -3.7204    2.8430   -0.4779 H   0  0  0  0  0  0  0  0  0  0  0  0
   -3.3580    4.2527   -1.2186 H   0  0  0  0  0  0  0  0  0  0  0  0
  1  5  1  0
  5  8  1  0
  1  2  1  0
  1  3  1  0
  1  4  1  0
  5  6  1  0
  5  7  1  0
  8  9  1  0
  8 10  1  0
  8 11  1  0
 12 16  1  0
 16 17  1  0
 12 13  1  0
 12 14  1  0
 12 15  1  0
 17 18  1  0
 17 19  1  0
 17 20  1  0
M  CHG  1   8   1
M  END
>  <PDB_ID>  (1154) 
pdb3ngl

>  <RESIDUE_NAME>  (1154) 
LYS   MET

>  <FRAG_NAME>  (1154) 
ETAM   MSM

>  <FRAG_ATOM_NUM>  (1154) 
fragi: 11  fragj: 9

>  <atom.prop.CHAIN_ID>  (1154) 
A A A A A A A A A A A Z Z Z Z Z Z Z Z Z

>  <atom.prop.IS_HEAVY_ATOM>  (1154) 
1 0 0 0 1 0 0 1 0 0 0 1 0 0 0 1 1 0 0 0

>  <DIFUSE_FUNC_ATOM>  (1154) 
n/a

>  <FINAL_SINGLE_POINT_ENERGY>  (1154) 
0

>  <NONCOV_INTER_ENERGY_QM>  (1154) 
0

>  <FF_Energy>  (1154) 
-3.53

>  <QM_Energy>  (1154) 
-11.2

>  <source>  (1154) 
ETAM_MSM

>  <Index>  (1154) 
7182

$$$$
ETAM-pdb4kq6-C-LYS-93:MSM-pdb4kq6-C-MET-97
     RDKit          3D

 20 18  0  0  0  0  0  0  0  0999 V2000
    1.2509    0.8966   -0.0000 C   0  0  0  0  0  0  0  0  0  0  0  0
    1.0968    1.6461    0.6094 H   0  0  0  0  0  0  0  0  0  0  0  0
    1.4317    1.1784   -0.9191 H   0  0  0  0  0  0  0  0  0  0  0  0
    2.0927    0.3084    0.3655 H   0  0  0  0  0  0  0  0  0  0  0  0
    0.0000    0.0000    0.0000 C   0  0  0  0  0  0  0  0  0  0  0  0
    0.0119   -0.5679   -0.8163 H   0  0  0  0  0  0  0  0  0  0  0  0
    0.0118   -0.5682    0.8158 H   0  0  0  0  0  0  0  0  0  0  0  0
   -1.2509    0.8379   -0.0000 N   0  0  0  0  0  4  0  0  0  0  0  0
   -2.0289    0.2564    0.2261 H   0  0  0  0  0  0  0  0  0  0  0  0
   -1.1556    1.5599    0.6799 H   0  0  0  0  0  0  0  0  0  0  0  0
   -1.3735    1.2351   -0.9059 H   0  0  0  0  0  0  0  0  0  0  0  0
   -5.7346    3.2105   -0.5121 C   0  0  0  0  0  0  0  0  0  0  0  0
   -6.4085    3.0591    0.2696 H   0  0  0  0  0  0  0  0  0  0  0  0
   -6.3584    3.3679   -1.3331 H   0  0  0  0  0  0  0  0  0  0  0  0
   -5.1985    4.1391   -0.3160 H   0  0  0  0  0  0  0  0  0  0  0  0
   -4.7223    1.7229   -0.7670 S   0  0  0  0  0  0  0  0  0  0  0  0
   -4.2170    1.7433   -2.4696 C   0  0  0  0  0  0  0  0  0  0  0  0
   -3.5616    1.0031   -2.6416 H   0  0  0  0  0  0  0  0  0  0  0  0
   -5.0147    1.6175   -3.0657 H   0  0  0  0  0  0  0  0  0  0  0  0
   -3.7829    2.6213   -2.6886 H   0  0  0  0  0  0  0  0  0  0  0  0
  1  5  1  0
  5  8  1  0
  1  2  1  0
  1  3  1  0
  1  4  1  0
  5  6  1  0
  5  7  1  0
  8  9  1  0
  8 10  1  0
  8 11  1  0
 12 16  1  0
 16 17  1  0
 12 13  1  0
 12 14  1  0
 12 15  1  0
 17 18  1  0
 17 19  1  0
 17 20  1  0
M  CHG  1   8   1
M  END
>  <PDB_ID>  (1155) 
pdb4kq6

>  <RESIDUE_NAME>  (1155) 
LYS   MET

>  <FRAG_NAME>  (1155) 
ETAM   MSM

>  <FRAG_ATOM_NUM>  (1155) 
fragi: 11  fragj: 9

>  <atom.prop.CHAIN_ID>  (1155) 
A A A A A A A A A A A Z Z Z Z Z Z Z Z Z

>  <atom.prop.IS_HEAVY_ATOM>  (1155) 
1 0 0 0 1 0 0 1 0 0 0 1 0 0 0 1 1 0 0 0

>  <DIFUSE_FUNC_ATOM>  (1155) 
n/a

>  <FINAL_SINGLE_POINT_ENERGY>  (1155) 
0

>  <NONCOV_INTER_ENERGY_QM>  (1155) 
0

>  <FF_Energy>  (1155) 
-4.15

>  <QM_Energy>  (1155) 
-9.64

>  <source>  (1155) 
ETAM_MSM

>  <Index>  (1155) 
7183

$$$$
ETAM-pdb4kq6-D-LYS-93:MSM-pdb4kq6-D-MET-97
     RDKit          3D

 20 18  0  0  0  0  0  0  0  0999 V2000
    1.2589    0.8463    0.0000 C   0  0  0  0  0  0  0  0  0  0  0  0
    1.2260    1.4772    0.7481 H   0  0  0  0  0  0  0  0  0  0  0  0
    1.3540    1.2867   -0.8688 H   0  0  0  0  0  0  0  0  0  0  0  0
    2.1131    0.1853    0.1464 H   0  0  0  0  0  0  0  0  0  0  0  0
    0.0000    0.0000    0.0000 C   0  0  0  0  0  0  0  0  0  0  0  0
    0.0027   -0.5937   -0.8164 H   0  0  0  0  0  0  0  0  0  0  0  0
    0.0023   -0.5933    0.8166 H   0  0  0  0  0  0  0  0  0  0  0  0
   -1.2589    0.8116   -0.0000 N   0  0  0  0  0  4  0  0  0  0  0  0
   -1.8320    0.5260    0.7657 H   0  0  0  0  0  0  0  0  0  0  0  0
   -1.0248    1.7770    0.0937 H   0  0  0  0  0  0  0  0  0  0  0  0
   -1.7442    0.6628   -0.8596 H   0  0  0  0  0  0  0  0  0  0  0  0
   -5.7139    3.3219    0.5283 C   0  0  0  0  0  0  0  0  0  0  0  0
   -6.1766    2.8630    1.3085 H   0  0  0  0  0  0  0  0  0  0  0  0
   -6.4474    3.6900   -0.0727 H   0  0  0  0  0  0  0  0  0  0  0  0
   -5.1126    4.1486    0.9066 H   0  0  0  0  0  0  0  0  0  0  0  0
   -4.6869    2.1311   -0.3867 S   0  0  0  0  0  0  0  0  0  0  0  0
   -4.3753    2.9310   -1.9694 C   0  0  0  0  0  0  0  0  0  0  0  0
   -5.0010    3.7030   -2.0795 H   0  0  0  0  0  0  0  0  0  0  0  0
   -3.4315    3.2589   -1.9951 H   0  0  0  0  0  0  0  0  0  0  0  0
   -4.5214    2.2733   -2.7076 H   0  0  0  0  0  0  0  0  0  0  0  0
  1  5  1  0
  5  8  1  0
  1  2  1  0
  1  3  1  0
  1  4  1  0
  5  6  1  0
  5  7  1  0
  8  9  1  0
  8 10  1  0
  8 11  1  0
 12 16  1  0
 16 17  1  0
 12 13  1  0
 12 14  1  0
 12 15  1  0
 17 18  1  0
 17 19  1  0
 17 20  1  0
M  CHG  1   8   1
M  END
>  <PDB_ID>  (1156) 
pdb4kq6

>  <RESIDUE_NAME>  (1156) 
LYS   MET

>  <FRAG_NAME>  (1156) 
ETAM   MSM

>  <FRAG_ATOM_NUM>  (1156) 
fragi: 11  fragj: 9

>  <atom.prop.CHAIN_ID>  (1156) 
A A A A A A A A A A A Z Z Z Z Z Z Z Z Z

>  <atom.prop.IS_HEAVY_ATOM>  (1156) 
1 0 0 0 1 0 0 1 0 0 0 1 0 0 0 1 1 0 0 0

>  <DIFUSE_FUNC_ATOM>  (1156) 
n/a

>  <FINAL_SINGLE_POINT_ENERGY>  (1156) 
0

>  <NONCOV_INTER_ENERGY_QM>  (1156) 
0

>  <FF_Energy>  (1156) 
-4.19

>  <QM_Energy>  (1156) 
-9.91

>  <source>  (1156) 
ETAM_MSM

>  <Index>  (1156) 
7188

$$$$
ETAM-pdb4kw1-E-LYS-303:MSM-pdb4kw1-F-MET-59
     RDKit          3D

 20 18  0  0  0  0  0  0  0  0999 V2000
    1.2371    0.9051    0.0000 C   0  0  0  0  0  0  0  0  0  0  0  0
    1.9652    0.4303    0.4545 H   0  0  0  0  0  0  0  0  0  0  0  0
    1.0004    1.7483    0.4417 H   0  0  0  0  0  0  0  0  0  0  0  0
    1.5127    1.0960   -1.0372 H   0  0  0  0  0  0  0  0  0  0  0  0
    0.0000    0.0000    0.0000 C   0  0  0  0  0  0  0  0  0  0  0  0
    0.0245   -0.5713   -0.8164 H   0  0  0  0  0  0  0  0  0  0  0  0
    0.0237   -0.5718    0.8164 H   0  0  0  0  0  0  0  0  0  0  0  0
   -1.2371    0.8177    0.0000 N   0  0  0  0  0  4  0  0  0  0  0  0
   -1.3111    1.3107   -0.8673 H   0  0  0  0  0  0  0  0  0  0  0  0
   -2.0320    0.2207    0.1125 H   0  0  0  0  0  0  0  0  0  0  0  0
   -1.2036    1.4739    0.7541 H   0  0  0  0  0  0  0  0  0  0  0  0
   -2.0101    0.4649   -4.3655 C   0  0  0  0  0  0  0  0  0  0  0  0
   -1.6398    1.4262   -4.4799 H   0  0  0  0  0  0  0  0  0  0  0  0
   -2.7934    0.5780   -3.6956 H   0  0  0  0  0  0  0  0  0  0  0  0
   -2.4183    0.1378   -5.3219 H   0  0  0  0  0  0  0  0  0  0  0  0
   -0.7352   -0.6188   -3.6618 S   0  0  0  0  0  0  0  0  0  0  0  0
    0.4898   -0.7232   -4.9360 C   0  0  0  0  0  0  0  0  0  0  0  0
    0.6650   -1.6845   -5.1701 H   0  0  0  0  0  0  0  0  0  0  0  0
    0.1739   -0.2421   -5.7601 H   0  0  0  0  0  0  0  0  0  0  0  0
    1.3485   -0.3042   -4.6259 H   0  0  0  0  0  0  0  0  0  0  0  0
  1  5  1  0
  5  8  1  0
  1  2  1  0
  1  3  1  0
  1  4  1  0
  5  6  1  0
  5  7  1  0
  8  9  1  0
  8 10  1  0
  8 11  1  0
 12 16  1  0
 16 17  1  0
 12 13  1  0
 12 14  1  0
 12 15  1  0
 17 18  1  0
 17 19  1  0
 17 20  1  0
M  CHG  1   8   1
M  END
>  <PDB_ID>  (1157) 
pdb4kw1

>  <RESIDUE_NAME>  (1157) 
LYS   MET

>  <FRAG_NAME>  (1157) 
ETAM   MSM

>  <FRAG_ATOM_NUM>  (1157) 
fragi: 11  fragj: 9

>  <atom.prop.CHAIN_ID>  (1157) 
A A A A A A A A A A A Z Z Z Z Z Z Z Z Z

>  <atom.prop.IS_HEAVY_ATOM>  (1157) 
1 0 0 0 1 0 0 1 0 0 0 1 0 0 0 1 1 0 0 0

>  <DIFUSE_FUNC_ATOM>  (1157) 
n/a

>  <FINAL_SINGLE_POINT_ENERGY>  (1157) 
0

>  <NONCOV_INTER_ENERGY_QM>  (1157) 
0

>  <FF_Energy>  (1157) 
-4.31

>  <QM_Energy>  (1157) 
-9.89

>  <source>  (1157) 
ETAM_MSM

>  <Index>  (1157) 
7190

$$$$
ETAM-pdb3ngl-C-LYS-48:MSM-pdb3ngl-C-MET-89
     RDKit          3D

 20 18  0  0  0  0  0  0  0  0999 V2000
    1.1973    0.8982    0.0000 C   0  0  0  0  0  0  0  0  0  0  0  0
    1.2215    1.4050    0.8522 H   0  0  0  0  0  0  0  0  0  0  0  0
    1.1399    1.5130   -0.7754 H   0  0  0  0  0  0  0  0  0  0  0  0
    2.1038    0.2990   -0.0845 H   0  0  0  0  0  0  0  0  0  0  0  0
    0.0000    0.0000    0.0000 C   0  0  0  0  0  0  0  0  0  0  0  0
    0.0164   -0.5686   -0.8166 H   0  0  0  0  0  0  0  0  0  0  0  0
    0.0153   -0.5689    0.8164 H   0  0  0  0  0  0  0  0  0  0  0  0
   -1.1973    0.8328    0.0000 N   0  0  0  0  0  4  0  0  0  0  0  0
   -1.2769    1.3248    0.8727 H   0  0  0  0  0  0  0  0  0  0  0  0
   -1.1525    1.5035   -0.7467 H   0  0  0  0  0  0  0  0  0  0  0  0
   -2.0150    0.2633   -0.1256 H   0  0  0  0  0  0  0  0  0  0  0  0
   -2.8898    4.9670    0.9610 C   0  0  0  0  0  0  0  0  0  0  0  0
   -3.4515    4.1560    1.1972 H   0  0  0  0  0  0  0  0  0  0  0  0
   -3.5104    5.6443    0.5296 H   0  0  0  0  0  0  0  0  0  0  0  0
   -2.4747    5.3922    1.8747 H   0  0  0  0  0  0  0  0  0  0  0  0
   -1.5617    4.5214   -0.1510 S   0  0  0  0  0  0  0  0  0  0  0  0
   -2.4890    3.9309   -1.5389 C   0  0  0  0  0  0  0  0  0  0  0  0
   -3.4534    4.1974   -1.4492 H   0  0  0  0  0  0  0  0  0  0  0  0
   -2.1235    4.3201   -2.3898 H   0  0  0  0  0  0  0  0  0  0  0  0
   -2.4333    2.9291   -1.5910 H   0  0  0  0  0  0  0  0  0  0  0  0
  1  5  1  0
  5  8  1  0
  1  2  1  0
  1  3  1  0
  1  4  1  0
  5  6  1  0
  5  7  1  0
  8  9  1  0
  8 10  1  0
  8 11  1  0
 12 16  1  0
 16 17  1  0
 12 13  1  0
 12 14  1  0
 12 15  1  0
 17 18  1  0
 17 19  1  0
 17 20  1  0
M  CHG  1   8   1
M  END
>  <PDB_ID>  (1158) 
pdb3ngl

>  <RESIDUE_NAME>  (1158) 
LYS   MET

>  <FRAG_NAME>  (1158) 
ETAM   MSM

>  <FRAG_ATOM_NUM>  (1158) 
fragi: 11  fragj: 9

>  <atom.prop.CHAIN_ID>  (1158) 
A A A A A A A A A A A Z Z Z Z Z Z Z Z Z

>  <atom.prop.IS_HEAVY_ATOM>  (1158) 
1 0 0 0 1 0 0 1 0 0 0 1 0 0 0 1 1 0 0 0

>  <DIFUSE_FUNC_ATOM>  (1158) 
n/a

>  <FINAL_SINGLE_POINT_ENERGY>  (1158) 
0

>  <NONCOV_INTER_ENERGY_QM>  (1158) 
0

>  <FF_Energy>  (1158) 
-3.12

>  <QM_Energy>  (1158) 
-8.42

>  <source>  (1158) 
ETAM_MSM

>  <Index>  (1158) 
7193

$$$$
ETAM-pdb4kq6-E-LYS-93:MSM-pdb4kq6-E-MET-97
     RDKit          3D

 20 18  0  0  0  0  0  0  0  0999 V2000
    1.2391    0.8802   -0.0000 C   0  0  0  0  0  0  0  0  0  0  0  0
    1.2647    1.3942    0.8388 H   0  0  0  0  0  0  0  0  0  0  0  0
    1.2158    1.4623   -0.7921 H   0  0  0  0  0  0  0  0  0  0  0  0
    2.1244    0.2466   -0.0528 H   0  0  0  0  0  0  0  0  0  0  0  0
    0.0000    0.0000    0.0000 C   0  0  0  0  0  0  0  0  0  0  0  0
    0.0108   -0.5771   -0.8165 H   0  0  0  0  0  0  0  0  0  0  0  0
    0.0102   -0.5772    0.8165 H   0  0  0  0  0  0  0  0  0  0  0  0
   -1.2391    0.8260   -0.0000 N   0  0  0  0  0  4  0  0  0  0  0  0
   -1.7085    0.7188   -0.8758 H   0  0  0  0  0  0  0  0  0  0  0  0
   -1.8385    0.5237    0.7409 H   0  0  0  0  0  0  0  0  0  0  0  0
   -0.9968    1.7863    0.1351 H   0  0  0  0  0  0  0  0  0  0  0  0
   -5.6796    3.0517    0.9113 C   0  0  0  0  0  0  0  0  0  0  0  0
   -6.1908    2.4484    1.5796 H   0  0  0  0  0  0  0  0  0  0  0  0
   -6.4294    3.5134    0.3651 H   0  0  0  0  0  0  0  0  0  0  0  0
   -5.1491    3.8163    1.4787 H   0  0  0  0  0  0  0  0  0  0  0  0
   -4.6406    2.0219   -0.1966 S   0  0  0  0  0  0  0  0  0  0  0  0
   -4.6987    3.1606   -1.5755 C   0  0  0  0  0  0  0  0  0  0  0  0
   -5.6447    3.4470   -1.7358 H   0  0  0  0  0  0  0  0  0  0  0  0
   -4.1393    3.9655   -1.3712 H   0  0  0  0  0  0  0  0  0  0  0  0
   -4.3456    2.7119   -2.3980 H   0  0  0  0  0  0  0  0  0  0  0  0
  1  5  1  0
  5  8  1  0
  1  2  1  0
  1  3  1  0
  1  4  1  0
  5  6  1  0
  5  7  1  0
  8  9  1  0
  8 10  1  0
  8 11  1  0
 12 16  1  0
 16 17  1  0
 12 13  1  0
 12 14  1  0
 12 15  1  0
 17 18  1  0
 17 19  1  0
 17 20  1  0
M  CHG  1   8   1
M  END
>  <PDB_ID>  (1159) 
pdb4kq6

>  <RESIDUE_NAME>  (1159) 
LYS   MET

>  <FRAG_NAME>  (1159) 
ETAM   MSM

>  <FRAG_ATOM_NUM>  (1159) 
fragi: 11  fragj: 9

>  <atom.prop.CHAIN_ID>  (1159) 
A A A A A A A A A A A Z Z Z Z Z Z Z Z Z

>  <atom.prop.IS_HEAVY_ATOM>  (1159) 
1 0 0 0 1 0 0 1 0 0 0 1 0 0 0 1 1 0 0 0

>  <DIFUSE_FUNC_ATOM>  (1159) 
n/a

>  <FINAL_SINGLE_POINT_ENERGY>  (1159) 
0

>  <NONCOV_INTER_ENERGY_QM>  (1159) 
0

>  <FF_Energy>  (1159) 
-4.76

>  <QM_Energy>  (1159) 
-10.55

>  <source>  (1159) 
ETAM_MSM

>  <Index>  (1159) 
7197

$$$$
ETAM-pdb3nmv-B-LYS-380:MSM-pdb3nmv-B-MET-385
     RDKit          3D

 20 18  0  0  0  0  0  0  0  0999 V2000
    1.2179    0.8886   -0.0000 C   0  0  0  0  0  0  0  0  0  0  0  0
    1.1050    1.5904    0.7007 H   0  0  0  0  0  0  0  0  0  0  0  0
    1.3025    1.3182   -0.8967 H   0  0  0  0  0  0  0  0  0  0  0  0
    2.1294    0.3287    0.2092 H   0  0  0  0  0  0  0  0  0  0  0  0
    0.0000    0.0000    0.0000 C   0  0  0  0  0  0  0  0  0  0  0  0
    0.0179   -0.5775   -0.8161 H   0  0  0  0  0  0  0  0  0  0  0  0
    0.0182   -0.5778    0.8158 H   0  0  0  0  0  0  0  0  0  0  0  0
   -1.2179    0.8163   -0.0000 N   0  0  0  0  0  4  0  0  0  0  0  0
   -1.3126    1.2905    0.8787 H   0  0  0  0  0  0  0  0  0  0  0  0
   -1.1736    1.4978   -0.7354 H   0  0  0  0  0  0  0  0  0  0  0  0
   -2.0214    0.2329   -0.1438 H   0  0  0  0  0  0  0  0  0  0  0  0
    4.4801    4.5034   -2.1896 C   0  0  0  0  0  0  0  0  0  0  0  0
    4.7114    4.4719   -1.1918 H   0  0  0  0  0  0  0  0  0  0  0  0
    4.5651    5.4871   -2.4615 H   0  0  0  0  0  0  0  0  0  0  0  0
    5.1976    3.9045   -2.7505 H   0  0  0  0  0  0  0  0  0  0  0  0
    2.7995    3.9273   -2.4570 S   0  0  0  0  0  0  0  0  0  0  0  0
    3.0805    2.2392   -2.0058 C   0  0  0  0  0  0  0  0  0  0  0  0
    2.2182    1.7246   -2.0352 H   0  0  0  0  0  0  0  0  0  0  0  0
    3.7318    1.8145   -2.6414 H   0  0  0  0  0  0  0  0  0  0  0  0
    3.4568    2.1875   -1.0754 H   0  0  0  0  0  0  0  0  0  0  0  0
  1  5  1  0
  5  8  1  0
  1  2  1  0
  1  3  1  0
  1  4  1  0
  5  6  1  0
  5  7  1  0
  8  9  1  0
  8 10  1  0
  8 11  1  0
 12 16  1  0
 16 17  1  0
 12 13  1  0
 12 14  1  0
 12 15  1  0
 17 18  1  0
 17 19  1  0
 17 20  1  0
M  CHG  1   8   1
M  END
>  <PDB_ID>  (1160) 
pdb3nmv

>  <RESIDUE_NAME>  (1160) 
LYS   MET

>  <FRAG_NAME>  (1160) 
ETAM   MSM

>  <FRAG_ATOM_NUM>  (1160) 
fragi: 11  fragj: 9

>  <atom.prop.CHAIN_ID>  (1160) 
A A A A A A A A A A A Z Z Z Z Z Z Z Z Z

>  <atom.prop.IS_HEAVY_ATOM>  (1160) 
1 0 0 0 1 0 0 1 0 0 0 1 0 0 0 1 1 0 0 0

>  <DIFUSE_FUNC_ATOM>  (1160) 
n/a

>  <FINAL_SINGLE_POINT_ENERGY>  (1160) 
0

>  <NONCOV_INTER_ENERGY_QM>  (1160) 
0

>  <FF_Energy>  (1160) 
26.93

>  <QM_Energy>  (1160) 
4.79

>  <source>  (1160) 
ETAM_MSM

>  <Index>  (1160) 
7209

$$$$
ETAM-pdb4kw1-C-LYS-303:MSM-pdb4kw1-D-MET-59
     RDKit          3D

 20 18  0  0  0  0  0  0  0  0999 V2000
    1.2093    0.9087    0.0000 C   0  0  0  0  0  0  0  0  0  0  0  0
    1.9296    0.4679    0.5178 H   0  0  0  0  0  0  0  0  0  0  0  0
    0.9506    1.7708    0.4122 H   0  0  0  0  0  0  0  0  0  0  0  0
    1.5343    1.0689   -1.0280 H   0  0  0  0  0  0  0  0  0  0  0  0
    0.0000    0.0000    0.0000 C   0  0  0  0  0  0  0  0  0  0  0  0
    0.0110   -0.5585   -0.8165 H   0  0  0  0  0  0  0  0  0  0  0  0
    0.0105   -0.5583    0.8162 H   0  0  0  0  0  0  0  0  0  0  0  0
   -1.2093    0.8547    0.0000 N   0  0  0  0  0  4  0  0  0  0  0  0
   -1.1537    1.5139    0.7512 H   0  0  0  0  0  0  0  0  0  0  0  0
   -1.2723    1.3461   -0.8695 H   0  0  0  0  0  0  0  0  0  0  0  0
   -2.0232    0.2839    0.1191 H   0  0  0  0  0  0  0  0  0  0  0  0
   -1.6916    0.2301   -4.4892 C   0  0  0  0  0  0  0  0  0  0  0  0
   -1.3382    1.1907   -4.6196 H   0  0  0  0  0  0  0  0  0  0  0  0
   -2.4872    0.3310   -3.8394 H   0  0  0  0  0  0  0  0  0  0  0  0
   -2.0534   -0.1515   -5.4440 H   0  0  0  0  0  0  0  0  0  0  0  0
   -0.3880   -0.8026   -3.7066 S   0  0  0  0  0  0  0  0  0  0  0  0
    0.9382   -0.6765   -4.8659 C   0  0  0  0  0  0  0  0  0  0  0  0
    0.7928   -1.3109   -5.6316 H   0  0  0  0  0  0  0  0  0  0  0  0
    0.9952    0.2590   -5.2294 H   0  0  0  0  0  0  0  0  0  0  0  0
    1.8115   -0.9032   -4.4220 H   0  0  0  0  0  0  0  0  0  0  0  0
  1  5  1  0
  5  8  1  0
  1  2  1  0
  1  3  1  0
  1  4  1  0
  5  6  1  0
  5  7  1  0
  8  9  1  0
  8 10  1  0
  8 11  1  0
 12 16  1  0
 16 17  1  0
 12 13  1  0
 12 14  1  0
 12 15  1  0
 17 18  1  0
 17 19  1  0
 17 20  1  0
M  CHG  1   8   1
M  END
>  <PDB_ID>  (1161) 
pdb4kw1

>  <RESIDUE_NAME>  (1161) 
LYS   MET

>  <FRAG_NAME>  (1161) 
ETAM   MSM

>  <FRAG_ATOM_NUM>  (1161) 
fragi: 11  fragj: 9

>  <atom.prop.CHAIN_ID>  (1161) 
A A A A A A A A A A A Z Z Z Z Z Z Z Z Z

>  <atom.prop.IS_HEAVY_ATOM>  (1161) 
1 0 0 0 1 0 0 1 0 0 0 1 0 0 0 1 1 0 0 0

>  <DIFUSE_FUNC_ATOM>  (1161) 
n/a

>  <FINAL_SINGLE_POINT_ENERGY>  (1161) 
0

>  <NONCOV_INTER_ENERGY_QM>  (1161) 
0

>  <FF_Energy>  (1161) 
-3.91

>  <QM_Energy>  (1161) 
-9.18

>  <source>  (1161) 
ETAM_MSM

>  <Index>  (1161) 
7223

$$$$
ETAM-pdb3nwj-A-LYS-164:MSM-pdb3nwj-A-MET-168
     RDKit          3D

 20 18  0  0  0  0  0  0  0  0999 V2000
    1.2644    0.8654   -0.0000 C   0  0  0  0  0  0  0  0  0  0  0  0
    2.0300    0.2987    0.3077 H   0  0  0  0  0  0  0  0  0  0  0  0
    1.1280    1.6163    0.6479 H   0  0  0  0  0  0  0  0  0  0  0  0
    1.5018    1.2801   -0.9797 H   0  0  0  0  0  0  0  0  0  0  0  0
    0.0000    0.0000    0.0000 C   0  0  0  0  0  0  0  0  0  0  0  0
    0.0308   -0.6048   -0.8161 H   0  0  0  0  0  0  0  0  0  0  0  0
    0.0314   -0.6046    0.8162 H   0  0  0  0  0  0  0  0  0  0  0  0
   -1.2644    0.7575    0.0000 N   0  0  0  0  0  4  0  0  0  0  0  0
   -1.1717    1.5716    0.5766 H   0  0  0  0  0  0  0  0  0  0  0  0
   -1.4899    1.0409   -0.9345 H   0  0  0  0  0  0  0  0  0  0  0  0
   -2.0031    0.1831    0.3570 H   0  0  0  0  0  0  0  0  0  0  0  0
   -2.0391    1.4216   -5.3195 C   0  0  0  0  0  0  0  0  0  0  0  0
   -2.9553    1.7955   -5.4457 H   0  0  0  0  0  0  0  0  0  0  0  0
   -1.8037    0.8368   -6.0926 H   0  0  0  0  0  0  0  0  0  0  0  0
   -1.3123    2.2277   -5.2194 H   0  0  0  0  0  0  0  0  0  0  0  0
   -1.9563    0.4778   -3.7756 S   0  0  0  0  0  0  0  0  0  0  0  0
   -3.6961    0.4792   -3.2561 C   0  0  0  0  0  0  0  0  0  0  0  0
   -4.2707    0.2957   -4.0501 H   0  0  0  0  0  0  0  0  0  0  0  0
   -3.8286   -0.2296   -2.5673 H   0  0  0  0  0  0  0  0  0  0  0  0
   -3.9190    1.3722   -2.8736 H   0  0  0  0  0  0  0  0  0  0  0  0
  1  5  1  0
  5  8  1  0
  1  2  1  0
  1  3  1  0
  1  4  1  0
  5  6  1  0
  5  7  1  0
  8  9  1  0
  8 10  1  0
  8 11  1  0
 12 16  1  0
 16 17  1  0
 12 13  1  0
 12 14  1  0
 12 15  1  0
 17 18  1  0
 17 19  1  0
 17 20  1  0
M  CHG  1   8   1
M  END
>  <PDB_ID>  (1162) 
pdb3nwj

>  <RESIDUE_NAME>  (1162) 
LYS   MET

>  <FRAG_NAME>  (1162) 
ETAM   MSM

>  <FRAG_ATOM_NUM>  (1162) 
fragi: 11  fragj: 9

>  <atom.prop.CHAIN_ID>  (1162) 
A A A A A A A A A A A Z Z Z Z Z Z Z Z Z

>  <atom.prop.IS_HEAVY_ATOM>  (1162) 
1 0 0 0 1 0 0 1 0 0 0 1 0 0 0 1 1 0 0 0

>  <DIFUSE_FUNC_ATOM>  (1162) 
n/a

>  <FINAL_SINGLE_POINT_ENERGY>  (1162) 
0

>  <NONCOV_INTER_ENERGY_QM>  (1162) 
0

>  <FF_Energy>  (1162) 
-4.17

>  <QM_Energy>  (1162) 
-10.77

>  <source>  (1162) 
ETAM_MSM

>  <Index>  (1162) 
7255

$$$$
ETAM-pdb4lim-A-LYS-312:MSM-pdb4lim-A-MET-307
     RDKit          3D

 20 18  0  0  0  0  0  0  0  0999 V2000
    1.2393    0.8885    0.0000 C   0  0  0  0  0  0  0  0  0  0  0  0
    2.0409    0.3218    0.0349 H   0  0  0  0  0  0  0  0  0  0  0  0
    1.1870    1.5129    0.7561 H   0  0  0  0  0  0  0  0  0  0  0  0
    1.2655    1.4660   -0.9242 H   0  0  0  0  0  0  0  0  0  0  0  0
    0.0000    0.0000    0.0000 C   0  0  0  0  0  0  0  0  0  0  0  0
   -0.0233   -0.5429   -0.8166 H   0  0  0  0  0  0  0  0  0  0  0  0
   -0.0231   -0.5431    0.8166 H   0  0  0  0  0  0  0  0  0  0  0  0
   -1.2393    0.9192    0.0000 N   0  0  0  0  0  4  0  0  0  0  0  0
   -0.9308    1.8458    0.1696 H   0  0  0  0  0  0  0  0  0  0  0  0
   -1.6727    0.8455   -0.8881 H   0  0  0  0  0  0  0  0  0  0  0  0
   -1.8469    0.6101    0.7187 H   0  0  0  0  0  0  0  0  0  0  0  0
   -5.4569   -0.5938    0.7988 C   0  0  0  0  0  0  0  0  0  0  0  0
   -6.1858   -0.7718    1.4705 H   0  0  0  0  0  0  0  0  0  0  0  0
   -4.6925   -1.2220    0.9861 H   0  0  0  0  0  0  0  0  0  0  0  0
   -5.8475   -0.8185   -0.1937 H   0  0  0  0  0  0  0  0  0  0  0  0
   -4.9054    1.1458    0.8808 S   0  0  0  0  0  0  0  0  0  0  0  0
   -6.2612    1.7546    1.9468 C   0  0  0  0  0  0  0  0  0  0  0  0
   -7.0961    1.2715    1.7036 H   0  0  0  0  0  0  0  0  0  0  0  0
   -6.0215    1.5768    2.8958 H   0  0  0  0  0  0  0  0  0  0  0  0
   -6.3697    2.7315    1.7940 H   0  0  0  0  0  0  0  0  0  0  0  0
  1  5  1  0
  5  8  1  0
  1  2  1  0
  1  3  1  0
  1  4  1  0
  5  6  1  0
  5  7  1  0
  8  9  1  0
  8 10  1  0
  8 11  1  0
 12 16  1  0
 16 17  1  0
 12 13  1  0
 12 14  1  0
 12 15  1  0
 17 18  1  0
 17 19  1  0
 17 20  1  0
M  CHG  1   8   1
M  END
>  <PDB_ID>  (1163) 
pdb4lim

>  <RESIDUE_NAME>  (1163) 
LYS   MET

>  <FRAG_NAME>  (1163) 
ETAM   MSM

>  <FRAG_ATOM_NUM>  (1163) 
fragi: 11  fragj: 9

>  <atom.prop.CHAIN_ID>  (1163) 
A A A A A A A A A A A Z Z Z Z Z Z Z Z Z

>  <atom.prop.IS_HEAVY_ATOM>  (1163) 
1 0 0 0 1 0 0 1 0 0 0 1 0 0 0 1 1 0 0 0

>  <DIFUSE_FUNC_ATOM>  (1163) 
n/a

>  <FINAL_SINGLE_POINT_ENERGY>  (1163) 
0

>  <NONCOV_INTER_ENERGY_QM>  (1163) 
0

>  <FF_Energy>  (1163) 
-4.38

>  <QM_Energy>  (1163) 
-9.77

>  <source>  (1163) 
ETAM_MSM

>  <Index>  (1163) 
7261

$$$$
ETAM-pdb4lmd-A-LYS-174:MSM-pdb4lmd-A-MET-177
     RDKit          3D

 20 18  0  0  0  0  0  0  0  0999 V2000
    1.2636    0.8821    0.0000 C   0  0  0  0  0  0  0  0  0  0  0  0
    1.1534    1.5819    0.6971 H   0  0  0  0  0  0  0  0  0  0  0  0
    1.3530    1.2954   -0.8985 H   0  0  0  0  0  0  0  0  0  0  0  0
    2.1618    0.3039    0.2169 H   0  0  0  0  0  0  0  0  0  0  0  0
    0.0000    0.0000    0.0000 C   0  0  0  0  0  0  0  0  0  0  0  0
    0.0151   -0.5802   -0.8167 H   0  0  0  0  0  0  0  0  0  0  0  0
    0.0150   -0.5804    0.8161 H   0  0  0  0  0  0  0  0  0  0  0  0
   -1.2636    0.8154   -0.0000 N   0  0  0  0  0  4  0  0  0  0  0  0
   -2.0430    0.2042    0.1107 H   0  0  0  0  0  0  0  0  0  0  0  0
   -1.2293    1.4647    0.7553 H   0  0  0  0  0  0  0  0  0  0  0  0
   -1.3339    1.3036   -0.8668 H   0  0  0  0  0  0  0  0  0  0  0  0
   -0.0175    5.3480    1.7397 C   0  0  0  0  0  0  0  0  0  0  0  0
   -0.6386    4.9912    2.4760 H   0  0  0  0  0  0  0  0  0  0  0  0
   -0.1688    6.3647    1.7282 H   0  0  0  0  0  0  0  0  0  0  0  0
    1.0192    5.1335    1.9990 H   0  0  0  0  0  0  0  0  0  0  0  0
   -0.4732    4.6380    0.1493 S   0  0  0  0  0  0  0  0  0  0  0  0
    0.3527    5.7197   -0.9724 C   0  0  0  0  0  0  0  0  0  0  0  0
    0.4927    6.6216   -0.5491 H   0  0  0  0  0  0  0  0  0  0  0  0
    1.2493    5.3418   -1.2262 H   0  0  0  0  0  0  0  0  0  0  0  0
   -0.1933    5.8391   -1.8090 H   0  0  0  0  0  0  0  0  0  0  0  0
  1  5  1  0
  5  8  1  0
  1  2  1  0
  1  3  1  0
  1  4  1  0
  5  6  1  0
  5  7  1  0
  8  9  1  0
  8 10  1  0
  8 11  1  0
 12 16  1  0
 16 17  1  0
 12 13  1  0
 12 14  1  0
 12 15  1  0
 17 18  1  0
 17 19  1  0
 17 20  1  0
M  CHG  1   8   1
M  END
>  <PDB_ID>  (1164) 
pdb4lmd

>  <RESIDUE_NAME>  (1164) 
LYS   MET

>  <FRAG_NAME>  (1164) 
ETAM   MSM

>  <FRAG_ATOM_NUM>  (1164) 
fragi: 11  fragj: 9

>  <atom.prop.CHAIN_ID>  (1164) 
A A A A A A A A A A A Z Z Z Z Z Z Z Z Z

>  <atom.prop.IS_HEAVY_ATOM>  (1164) 
1 0 0 0 1 0 0 1 0 0 0 1 0 0 0 1 1 0 0 0

>  <DIFUSE_FUNC_ATOM>  (1164) 
n/a

>  <FINAL_SINGLE_POINT_ENERGY>  (1164) 
0

>  <NONCOV_INTER_ENERGY_QM>  (1164) 
0

>  <FF_Energy>  (1164) 
-4.95

>  <QM_Energy>  (1164) 
-10.5

>  <source>  (1164) 
ETAM_MSM

>  <Index>  (1164) 
7271

$$$$
ETAM-pdb4ln5-A-LYS-46:MSM-pdb4ln5-A-MET-43
     RDKit          3D

 20 18  0  0  0  0  0  0  0  0999 V2000
    1.2453    0.8625    0.0000 C   0  0  0  0  0  0  0  0  0  0  0  0
    1.2726    1.3898    0.8433 H   0  0  0  0  0  0  0  0  0  0  0  0
    1.2164    1.4701   -0.7867 H   0  0  0  0  0  0  0  0  0  0  0  0
    2.1517    0.2601   -0.0603 H   0  0  0  0  0  0  0  0  0  0  0  0
    0.0000    0.0000    0.0000 C   0  0  0  0  0  0  0  0  0  0  0  0
    0.0104   -0.5888   -0.8162 H   0  0  0  0  0  0  0  0  0  0  0  0
    0.0102   -0.5889    0.8161 H   0  0  0  0  0  0  0  0  0  0  0  0
   -1.2453    0.8085   -0.0000 N   0  0  0  0  0  4  0  0  0  0  0  0
   -2.0385    0.1994   -0.0031 H   0  0  0  0  0  0  0  0  0  0  0  0
   -1.2693    1.3829    0.8184 H   0  0  0  0  0  0  0  0  0  0  0  0
   -1.2670    1.3879   -0.8149 H   0  0  0  0  0  0  0  0  0  0  0  0
   -2.9195   -3.4563    1.1286 C   0  0  0  0  0  0  0  0  0  0  0  0
   -3.1649   -3.3313    0.1411 H   0  0  0  0  0  0  0  0  0  0  0  0
   -3.7082   -3.9600    1.5469 H   0  0  0  0  0  0  0  0  0  0  0  0
   -2.0442   -4.1041    1.1768 H   0  0  0  0  0  0  0  0  0  0  0  0
   -2.6701   -1.8559    1.9405 S   0  0  0  0  0  0  0  0  0  0  0  0
   -4.3578   -1.3211    2.2231 C   0  0  0  0  0  0  0  0  0  0  0  0
   -4.3870   -0.3227    2.2844 H   0  0  0  0  0  0  0  0  0  0  0  0
   -4.9367   -1.6246    1.4650 H   0  0  0  0  0  0  0  0  0  0  0  0
   -4.6952   -1.7160    3.0781 H   0  0  0  0  0  0  0  0  0  0  0  0
  1  5  1  0
  5  8  1  0
  1  2  1  0
  1  3  1  0
  1  4  1  0
  5  6  1  0
  5  7  1  0
  8  9  1  0
  8 10  1  0
  8 11  1  0
 12 16  1  0
 16 17  1  0
 12 13  1  0
 12 14  1  0
 12 15  1  0
 17 18  1  0
 17 19  1  0
 17 20  1  0
M  CHG  1   8   1
M  END
>  <PDB_ID>  (1165) 
pdb4ln5

>  <RESIDUE_NAME>  (1165) 
LYS   MET

>  <FRAG_NAME>  (1165) 
ETAM   MSM

>  <FRAG_ATOM_NUM>  (1165) 
fragi: 11  fragj: 9

>  <atom.prop.CHAIN_ID>  (1165) 
A A A A A A A A A A A Z Z Z Z Z Z Z Z Z

>  <atom.prop.IS_HEAVY_ATOM>  (1165) 
1 0 0 0 1 0 0 1 0 0 0 1 0 0 0 1 1 0 0 0

>  <DIFUSE_FUNC_ATOM>  (1165) 
n/a

>  <FINAL_SINGLE_POINT_ENERGY>  (1165) 
0

>  <NONCOV_INTER_ENERGY_QM>  (1165) 
0

>  <FF_Energy>  (1165) 
-5.07

>  <QM_Energy>  (1165) 
-13.36

>  <source>  (1165) 
ETAM_MSM

>  <Index>  (1165) 
7273

$$$$
ETAM-pdb3o5c-A-LYS-250:MSM-pdb3o5c-A-MET-98
     RDKit          3D

 20 18  0  0  0  0  0  0  0  0999 V2000
    1.2678    0.8020   -0.0000 C   0  0  0  0  0  0  0  0  0  0  0  0
    1.3178    1.3308   -0.8472 H   0  0  0  0  0  0  0  0  0  0  0  0
    2.0467    0.1773    0.0509 H   0  0  0  0  0  0  0  0  0  0  0  0
    1.3141    1.4898    0.8444 H   0  0  0  0  0  0  0  0  0  0  0  0
    0.0000    0.0000    0.0000 C   0  0  0  0  0  0  0  0  0  0  0  0
   -0.0109   -0.6116   -0.8164 H   0  0  0  0  0  0  0  0  0  0  0  0
   -0.0114   -0.6113    0.8163 H   0  0  0  0  0  0  0  0  0  0  0  0
   -1.2678    0.8011    0.0000 N   0  0  0  0  0  4  0  0  0  0  0  0
   -1.8370    0.5102   -0.7664 H   0  0  0  0  0  0  0  0  0  0  0  0
   -1.7509    0.6464    0.8594 H   0  0  0  0  0  0  0  0  0  0  0  0
   -1.0426    1.7683   -0.0929 H   0  0  0  0  0  0  0  0  0  0  0  0
   -0.8045    1.4310   -3.8287 C   0  0  0  0  0  0  0  0  0  0  0  0
   -1.2210    1.6348   -4.7494 H   0  0  0  0  0  0  0  0  0  0  0  0
   -1.2675    0.5653   -3.5164 H   0  0  0  0  0  0  0  0  0  0  0  0
    0.2474    1.1970   -3.9928 H   0  0  0  0  0  0  0  0  0  0  0  0
   -1.0839    2.7759   -2.6724 S   0  0  0  0  0  0  0  0  0  0  0  0
   -1.2945    4.2006   -3.7471 C   0  0  0  0  0  0  0  0  0  0  0  0
   -0.4720    4.3223   -4.3031 H   0  0  0  0  0  0  0  0  0  0  0  0
   -2.0827    4.0528   -4.3450 H   0  0  0  0  0  0  0  0  0  0  0  0
   -1.4458    5.0174   -3.1905 H   0  0  0  0  0  0  0  0  0  0  0  0
  1  5  1  0
  5  8  1  0
  1  2  1  0
  1  3  1  0
  1  4  1  0
  5  6  1  0
  5  7  1  0
  8  9  1  0
  8 10  1  0
  8 11  1  0
 12 16  1  0
 16 17  1  0
 12 13  1  0
 12 14  1  0
 12 15  1  0
 17 18  1  0
 17 19  1  0
 17 20  1  0
M  CHG  1   8   1
M  END
>  <PDB_ID>  (1166) 
pdb3o5c

>  <RESIDUE_NAME>  (1166) 
LYS   MET

>  <FRAG_NAME>  (1166) 
ETAM   MSM

>  <FRAG_ATOM_NUM>  (1166) 
fragi: 11  fragj: 9

>  <atom.prop.CHAIN_ID>  (1166) 
A A A A A A A A A A A Z Z Z Z Z Z Z Z Z

>  <atom.prop.IS_HEAVY_ATOM>  (1166) 
1 0 0 0 1 0 0 1 0 0 0 1 0 0 0 1 1 0 0 0

>  <DIFUSE_FUNC_ATOM>  (1166) 
n/a

>  <FINAL_SINGLE_POINT_ENERGY>  (1166) 
0

>  <NONCOV_INTER_ENERGY_QM>  (1166) 
0

>  <FF_Energy>  (1166) 
-5.59

>  <QM_Energy>  (1166) 
-12.61

>  <source>  (1166) 
ETAM_MSM

>  <Index>  (1166) 
7289

$$$$
ETAM-pdb3o5c-B-LYS-250:MSM-pdb3o5c-B-MET-98
     RDKit          3D

 20 18  0  0  0  0  0  0  0  0999 V2000
    1.2624    0.8415   -0.0000 C   0  0  0  0  0  0  0  0  0  0  0  0
    1.2537    1.4333   -0.8055 H   0  0  0  0  0  0  0  0  0  0  0  0
    2.0534    0.2321   -0.0399 H   0  0  0  0  0  0  0  0  0  0  0  0
    1.3508    1.4673    0.8881 H   0  0  0  0  0  0  0  0  0  0  0  0
    0.0000    0.0000    0.0000 C   0  0  0  0  0  0  0  0  0  0  0  0
   -0.0003   -0.5936   -0.8163 H   0  0  0  0  0  0  0  0  0  0  0  0
   -0.0007   -0.5941    0.8161 H   0  0  0  0  0  0  0  0  0  0  0  0
   -1.2624    0.8152   -0.0000 N   0  0  0  0  0  4  0  0  0  0  0  0
   -1.9363    0.3699   -0.5844 H   0  0  0  0  0  0  0  0  0  0  0  0
   -1.6085    0.8769    0.9339 H   0  0  0  0  0  0  0  0  0  0  0  0
   -1.0596    1.7278   -0.3491 H   0  0  0  0  0  0  0  0  0  0  0  0
   -0.3383    1.5142   -3.8392 C   0  0  0  0  0  0  0  0  0  0  0  0
   -0.6384    1.8352   -4.7561 H   0  0  0  0  0  0  0  0  0  0  0  0
   -0.9006    0.6956   -3.6169 H   0  0  0  0  0  0  0  0  0  0  0  0
    0.7016    1.1974   -3.9183 H   0  0  0  0  0  0  0  0  0  0  0  0
   -0.5395    2.8014   -2.5978 S   0  0  0  0  0  0  0  0  0  0  0  0
   -2.3047    3.0695   -2.6449 C   0  0  0  0  0  0  0  0  0  0  0  0
   -2.6609    2.8229   -3.5488 H   0  0  0  0  0  0  0  0  0  0  0  0
   -2.7509    2.5040   -1.9489 H   0  0  0  0  0  0  0  0  0  0  0  0
   -2.5052    4.0346   -2.4639 H   0  0  0  0  0  0  0  0  0  0  0  0
  1  5  1  0
  5  8  1  0
  1  2  1  0
  1  3  1  0
  1  4  1  0
  5  6  1  0
  5  7  1  0
  8  9  1  0
  8 10  1  0
  8 11  1  0
 12 16  1  0
 16 17  1  0
 12 13  1  0
 12 14  1  0
 12 15  1  0
 17 18  1  0
 17 19  1  0
 17 20  1  0
M  CHG  1   8   1
M  END
>  <PDB_ID>  (1167) 
pdb3o5c

>  <RESIDUE_NAME>  (1167) 
LYS   MET

>  <FRAG_NAME>  (1167) 
ETAM   MSM

>  <FRAG_ATOM_NUM>  (1167) 
fragi: 11  fragj: 9

>  <atom.prop.CHAIN_ID>  (1167) 
A A A A A A A A A A A Z Z Z Z Z Z Z Z Z

>  <atom.prop.IS_HEAVY_ATOM>  (1167) 
1 0 0 0 1 0 0 1 0 0 0 1 0 0 0 1 1 0 0 0

>  <DIFUSE_FUNC_ATOM>  (1167) 
n/a

>  <FINAL_SINGLE_POINT_ENERGY>  (1167) 
0

>  <NONCOV_INTER_ENERGY_QM>  (1167) 
0

>  <FF_Energy>  (1167) 
-4.31

>  <QM_Energy>  (1167) 
-12.39

>  <source>  (1167) 
ETAM_MSM

>  <Index>  (1167) 
7290

$$$$
ETAM-pdb3o5c-D-LYS-250:MSM-pdb3o5c-D-MET-98
     RDKit          3D

 20 18  0  0  0  0  0  0  0  0999 V2000
    1.2722    0.8506   -0.0000 C   0  0  0  0  0  0  0  0  0  0  0  0
    1.2232    1.4989   -0.7571 H   0  0  0  0  0  0  0  0  0  0  0  0
    2.0587    0.2482   -0.1215 H   0  0  0  0  0  0  0  0  0  0  0  0
    1.4123    1.4144    0.9223 H   0  0  0  0  0  0  0  0  0  0  0  0
    0.0000    0.0000    0.0000 C   0  0  0  0  0  0  0  0  0  0  0  0
    0.0119   -0.5978   -0.8164 H   0  0  0  0  0  0  0  0  0  0  0  0
    0.0116   -0.5979    0.8165 H   0  0  0  0  0  0  0  0  0  0  0  0
   -1.2722    0.7925    0.0000 N   0  0  0  0  0  4  0  0  0  0  0  0
   -1.6479    0.8062   -0.9240 H   0  0  0  0  0  0  0  0  0  0  0  0
   -1.9236    0.3644    0.6237 H   0  0  0  0  0  0  0  0  0  0  0  0
   -1.0764    1.7242    0.3004 H   0  0  0  0  0  0  0  0  0  0  0  0
   -0.5793    1.8985   -3.9238 C   0  0  0  0  0  0  0  0  0  0  0  0
   -0.9155    2.1858   -4.8428 H   0  0  0  0  0  0  0  0  0  0  0  0
   -1.0399    1.0135   -3.7138 H   0  0  0  0  0  0  0  0  0  0  0  0
    0.4937    1.7194   -3.9928 H   0  0  0  0  0  0  0  0  0  0  0  0
   -0.9627    3.1376   -2.6790 S   0  0  0  0  0  0  0  0  0  0  0  0
   -2.7436    3.0234   -2.7353 C   0  0  0  0  0  0  0  0  0  0  0  0
   -3.1210    3.1676   -1.8186 H   0  0  0  0  0  0  0  0  0  0  0  0
   -3.1086    3.7213   -3.3554 H   0  0  0  0  0  0  0  0  0  0  0  0
   -3.0146    2.1166   -3.0650 H   0  0  0  0  0  0  0  0  0  0  0  0
  1  5  1  0
  5  8  1  0
  1  2  1  0
  1  3  1  0
  1  4  1  0
  5  6  1  0
  5  7  1  0
  8  9  1  0
  8 10  1  0
  8 11  1  0
 12 16  1  0
 16 17  1  0
 12 13  1  0
 12 14  1  0
 12 15  1  0
 17 18  1  0
 17 19  1  0
 17 20  1  0
M  CHG  1   8   1
M  END
>  <PDB_ID>  (1168) 
pdb3o5c

>  <RESIDUE_NAME>  (1168) 
LYS   MET

>  <FRAG_NAME>  (1168) 
ETAM   MSM

>  <FRAG_ATOM_NUM>  (1168) 
fragi: 11  fragj: 9

>  <atom.prop.CHAIN_ID>  (1168) 
A A A A A A A A A A A Z Z Z Z Z Z Z Z Z

>  <atom.prop.IS_HEAVY_ATOM>  (1168) 
1 0 0 0 1 0 0 1 0 0 0 1 0 0 0 1 1 0 0 0

>  <DIFUSE_FUNC_ATOM>  (1168) 
n/a

>  <FINAL_SINGLE_POINT_ENERGY>  (1168) 
0

>  <NONCOV_INTER_ENERGY_QM>  (1168) 
0

>  <FF_Energy>  (1168) 
-4.25

>  <QM_Energy>  (1168) 
-10.23

>  <source>  (1168) 
ETAM_MSM

>  <Index>  (1168) 
7292

$$$$
ETAM-pdb3o0y-A-LYS-557:MSM-pdb3o0y-A-MET-560
     RDKit          3D

 20 18  0  0  0  0  0  0  0  0999 V2000
    1.2639    0.7747   -0.0000 C   0  0  0  0  0  0  0  0  0  0  0  0
    1.2738    1.4107    0.7809 H   0  0  0  0  0  0  0  0  0  0  0  0
    1.3320    1.3141   -0.8481 H   0  0  0  0  0  0  0  0  0  0  0  0
    2.1619    0.1610    0.0695 H   0  0  0  0  0  0  0  0  0  0  0  0
    0.0000    0.0000    0.0000 C   0  0  0  0  0  0  0  0  0  0  0  0
   -0.0659   -0.5807   -0.8164 H   0  0  0  0  0  0  0  0  0  0  0  0
   -0.0658   -0.5810    0.8162 H   0  0  0  0  0  0  0  0  0  0  0  0
   -1.2639    0.9148    0.0000 N   0  0  0  0  0  4  0  0  0  0  0  0
   -1.9472    0.4752   -0.5633 H   0  0  0  0  0  0  0  0  0  0  0  0
   -1.5672    1.0000    0.9371 H   0  0  0  0  0  0  0  0  0  0  0  0
   -0.9958    1.7890   -0.3734 H   0  0  0  0  0  0  0  0  0  0  0  0
   -0.6151    1.7093   -4.9086 C   0  0  0  0  0  0  0  0  0  0  0  0
   -1.0838    2.6028   -4.8809 H   0  0  0  0  0  0  0  0  0  0  0  0
   -0.8381    1.2685   -5.7886 H   0  0  0  0  0  0  0  0  0  0  0  0
    0.4625    1.8462   -4.8175 H   0  0  0  0  0  0  0  0  0  0  0  0
   -1.3327    0.6160   -3.4955 S   0  0  0  0  0  0  0  0  0  0  0  0
   -3.0550    0.4005   -4.1064 C   0  0  0  0  0  0  0  0  0  0  0  0
   -3.5806    1.2012   -3.8440 H   0  0  0  0  0  0  0  0  0  0  0  0
   -3.0258    0.3096   -5.0949 H   0  0  0  0  0  0  0  0  0  0  0  0
   -3.4332   -0.4182   -3.6904 H   0  0  0  0  0  0  0  0  0  0  0  0
  1  5  1  0
  5  8  1  0
  1  2  1  0
  1  3  1  0
  1  4  1  0
  5  6  1  0
  5  7  1  0
  8  9  1  0
  8 10  1  0
  8 11  1  0
 12 16  1  0
 16 17  1  0
 12 13  1  0
 12 14  1  0
 12 15  1  0
 17 18  1  0
 17 19  1  0
 17 20  1  0
M  CHG  1   8   1
M  END
>  <PDB_ID>  (1169) 
pdb3o0y

>  <RESIDUE_NAME>  (1169) 
LYS   MET

>  <FRAG_NAME>  (1169) 
ETAM   MSM

>  <FRAG_ATOM_NUM>  (1169) 
fragi: 11  fragj: 9

>  <atom.prop.CHAIN_ID>  (1169) 
A A A A A A A A A A A Z Z Z Z Z Z Z Z Z

>  <atom.prop.IS_HEAVY_ATOM>  (1169) 
1 0 0 0 1 0 0 1 0 0 0 1 0 0 0 1 1 0 0 0

>  <DIFUSE_FUNC_ATOM>  (1169) 
n/a

>  <FINAL_SINGLE_POINT_ENERGY>  (1169) 
0

>  <NONCOV_INTER_ENERGY_QM>  (1169) 
0

>  <FF_Energy>  (1169) 
-5.41

>  <QM_Energy>  (1169) 
-13.1

>  <source>  (1169) 
ETAM_MSM

>  <Index>  (1169) 
7305

$$$$
ETAM-pdb4ly5-A-LYS-14:MSM-pdb4ly5-A-MET-18
     RDKit          3D

 20 18  0  0  0  0  0  0  0  0999 V2000
    1.2272    0.8859    0.0000 C   0  0  0  0  0  0  0  0  0  0  0  0
    1.0235    1.7112    0.5251 H   0  0  0  0  0  0  0  0  0  0  0  0
    1.4407    1.1330   -0.9439 H   0  0  0  0  0  0  0  0  0  0  0  0
    2.0912    0.3895    0.4418 H   0  0  0  0  0  0  0  0  0  0  0  0
    0.0000    0.0000    0.0000 C   0  0  0  0  0  0  0  0  0  0  0  0
   -0.0051   -0.5605   -0.8164 H   0  0  0  0  0  0  0  0  0  0  0  0
   -0.0050   -0.5604    0.8160 H   0  0  0  0  0  0  0  0  0  0  0  0
   -1.2272    0.8711    0.0000 N   0  0  0  0  0  4  0  0  0  0  0  0
   -0.9748    1.7852    0.3066 H   0  0  0  0  0  0  0  0  0  0  0  0
   -1.5947    0.9115   -0.9259 H   0  0  0  0  0  0  0  0  0  0  0  0
   -1.9025    0.4785    0.6186 H   0  0  0  0  0  0  0  0  0  0  0  0
    0.4715    1.5786    3.6907 C   0  0  0  0  0  0  0  0  0  0  0  0
    0.8524    2.0468    2.8616 H   0  0  0  0  0  0  0  0  0  0  0  0
    1.0448    0.7379    3.8189 H   0  0  0  0  0  0  0  0  0  0  0  0
    0.6228    2.2308    4.5508 H   0  0  0  0  0  0  0  0  0  0  0  0
   -1.2618    1.1396    3.4389 S   0  0  0  0  0  0  0  0  0  0  0  0
   -1.7310    0.1461    4.8411 C   0  0  0  0  0  0  0  0  0  0  0  0
   -1.5660   -0.8226    4.6431 H   0  0  0  0  0  0  0  0  0  0  0  0
   -1.1917    0.4125    5.6433 H   0  0  0  0  0  0  0  0  0  0  0  0
   -2.7049    0.2783    5.0415 H   0  0  0  0  0  0  0  0  0  0  0  0
  1  5  1  0
  5  8  1  0
  1  2  1  0
  1  3  1  0
  1  4  1  0
  5  6  1  0
  5  7  1  0
  8  9  1  0
  8 10  1  0
  8 11  1  0
 12 16  1  0
 16 17  1  0
 12 13  1  0
 12 14  1  0
 12 15  1  0
 17 18  1  0
 17 19  1  0
 17 20  1  0
M  CHG  1   8   1
M  END
>  <PDB_ID>  (1170) 
pdb4ly5

>  <RESIDUE_NAME>  (1170) 
LYS   MET

>  <FRAG_NAME>  (1170) 
ETAM   MSM

>  <FRAG_ATOM_NUM>  (1170) 
fragi: 11  fragj: 9

>  <atom.prop.CHAIN_ID>  (1170) 
A A A A A A A A A A A Z Z Z Z Z Z Z Z Z

>  <atom.prop.IS_HEAVY_ATOM>  (1170) 
1 0 0 0 1 0 0 1 0 0 0 1 0 0 0 1 1 0 0 0

>  <DIFUSE_FUNC_ATOM>  (1170) 
n/a

>  <FINAL_SINGLE_POINT_ENERGY>  (1170) 
0

>  <NONCOV_INTER_ENERGY_QM>  (1170) 
0

>  <FF_Energy>  (1170) 
-5.51

>  <QM_Energy>  (1170) 
-13.02

>  <source>  (1170) 
ETAM_MSM

>  <Index>  (1170) 
7324

$$$$
ETAM-pdb3o0y-B-LYS-557:MSM-pdb3o0y-B-MET-560
     RDKit          3D

 20 18  0  0  0  0  0  0  0  0999 V2000
    1.2448    0.8945   -0.0000 C   0  0  0  0  0  0  0  0  0  0  0  0
    1.2166    1.4612    0.8292 H   0  0  0  0  0  0  0  0  0  0  0  0
    1.1927    1.4943   -0.8038 H   0  0  0  0  0  0  0  0  0  0  0  0
    2.1820    0.3383   -0.0243 H   0  0  0  0  0  0  0  0  0  0  0  0
    0.0000    0.0000    0.0000 C   0  0  0  0  0  0  0  0  0  0  0  0
   -0.0060   -0.5538   -0.8163 H   0  0  0  0  0  0  0  0  0  0  0  0
   -0.0062   -0.5536    0.8163 H   0  0  0  0  0  0  0  0  0  0  0  0
   -1.2448    0.8826    0.0000 N   0  0  0  0  0  4  0  0  0  0  0  0
   -2.0323    0.3114    0.2013 H   0  0  0  0  0  0  0  0  0  0  0  0
   -1.1329    1.5813    0.6969 H   0  0  0  0  0  0  0  0  0  0  0  0
   -1.3350    1.2971   -0.8984 H   0  0  0  0  0  0  0  0  0  0  0  0
   -0.6105    1.9314   -4.7999 C   0  0  0  0  0  0  0  0  0  0  0  0
   -1.1373    2.7958   -4.6802 H   0  0  0  0  0  0  0  0  0  0  0  0
   -0.8226    1.5918   -5.7376 H   0  0  0  0  0  0  0  0  0  0  0  0
    0.4566    2.1367   -4.7154 H   0  0  0  0  0  0  0  0  0  0  0  0
   -1.2472    0.6583   -3.5388 S   0  0  0  0  0  0  0  0  0  0  0  0
   -2.9845    0.5280   -4.0793 C   0  0  0  0  0  0  0  0  0  0  0  0
   -3.3493    1.4457   -4.2052 H   0  0  0  0  0  0  0  0  0  0  0  0
   -3.0148    0.0239   -4.9374 H   0  0  0  0  0  0  0  0  0  0  0  0
   -3.5013    0.0457   -3.3787 H   0  0  0  0  0  0  0  0  0  0  0  0
  1  5  1  0
  5  8  1  0
  1  2  1  0
  1  3  1  0
  1  4  1  0
  5  6  1  0
  5  7  1  0
  8  9  1  0
  8 10  1  0
  8 11  1  0
 12 16  1  0
 16 17  1  0
 12 13  1  0
 12 14  1  0
 12 15  1  0
 17 18  1  0
 17 19  1  0
 17 20  1  0
M  CHG  1   8   1
M  END
>  <PDB_ID>  (1171) 
pdb3o0y

>  <RESIDUE_NAME>  (1171) 
LYS   MET

>  <FRAG_NAME>  (1171) 
ETAM   MSM

>  <FRAG_ATOM_NUM>  (1171) 
fragi: 11  fragj: 9

>  <atom.prop.CHAIN_ID>  (1171) 
A A A A A A A A A A A Z Z Z Z Z Z Z Z Z

>  <atom.prop.IS_HEAVY_ATOM>  (1171) 
1 0 0 0 1 0 0 1 0 0 0 1 0 0 0 1 1 0 0 0

>  <DIFUSE_FUNC_ATOM>  (1171) 
n/a

>  <FINAL_SINGLE_POINT_ENERGY>  (1171) 
0

>  <NONCOV_INTER_ENERGY_QM>  (1171) 
0

>  <FF_Energy>  (1171) 
-5.54

>  <QM_Energy>  (1171) 
-15.34

>  <source>  (1171) 
ETAM_MSM

>  <Index>  (1171) 
7326

$$$$
ETAM-pdb3o0y-C-LYS-557:MSM-pdb3o0y-C-MET-560
     RDKit          3D

 20 18  0  0  0  0  0  0  0  0999 V2000
    1.2334    0.9074   -0.0000 C   0  0  0  0  0  0  0  0  0  0  0  0
    1.1691    1.5234    0.7840 H   0  0  0  0  0  0  0  0  0  0  0  0
    1.2299    1.4391   -0.8453 H   0  0  0  0  0  0  0  0  0  0  0  0
    2.1682    0.3505    0.0646 H   0  0  0  0  0  0  0  0  0  0  0  0
    0.0000    0.0000    0.0000 C   0  0  0  0  0  0  0  0  0  0  0  0
    0.0015   -0.5508   -0.8166 H   0  0  0  0  0  0  0  0  0  0  0  0
    0.0006   -0.5516    0.8162 H   0  0  0  0  0  0  0  0  0  0  0  0
   -1.2334    0.8776    0.0000 N   0  0  0  0  0  4  0  0  0  0  0  0
   -1.9879    0.3673   -0.4020 H   0  0  0  0  0  0  0  0  0  0  0  0
   -1.4473    1.1263    0.9400 H   0  0  0  0  0  0  0  0  0  0  0  0
   -1.0445    1.6934   -0.5377 H   0  0  0  0  0  0  0  0  0  0  0  0
   -0.6131    2.1938   -4.8455 C   0  0  0  0  0  0  0  0  0  0  0  0
   -1.0921    3.0571   -4.6745 H   0  0  0  0  0  0  0  0  0  0  0  0
   -0.8403    1.8677   -5.7646 H   0  0  0  0  0  0  0  0  0  0  0  0
    0.4628    2.3490   -4.7657 H   0  0  0  0  0  0  0  0  0  0  0  0
   -1.1990    0.9024   -3.5729 S   0  0  0  0  0  0  0  0  0  0  0  0
   -2.9197    0.6538   -4.0762 C   0  0  0  0  0  0  0  0  0  0  0  0
   -3.0008    0.8246   -5.0558 H   0  0  0  0  0  0  0  0  0  0  0  0
   -3.1867   -0.2864   -3.8727 H   0  0  0  0  0  0  0  0  0  0  0  0
   -3.5019    1.2886   -3.5722 H   0  0  0  0  0  0  0  0  0  0  0  0
  1  5  1  0
  5  8  1  0
  1  2  1  0
  1  3  1  0
  1  4  1  0
  5  6  1  0
  5  7  1  0
  8  9  1  0
  8 10  1  0
  8 11  1  0
 12 16  1  0
 16 17  1  0
 12 13  1  0
 12 14  1  0
 12 15  1  0
 17 18  1  0
 17 19  1  0
 17 20  1  0
M  CHG  1   8   1
M  END
>  <PDB_ID>  (1172) 
pdb3o0y

>  <RESIDUE_NAME>  (1172) 
LYS   MET

>  <FRAG_NAME>  (1172) 
ETAM   MSM

>  <FRAG_ATOM_NUM>  (1172) 
fragi: 11  fragj: 9

>  <atom.prop.CHAIN_ID>  (1172) 
A A A A A A A A A A A Z Z Z Z Z Z Z Z Z

>  <atom.prop.IS_HEAVY_ATOM>  (1172) 
1 0 0 0 1 0 0 1 0 0 0 1 0 0 0 1 1 0 0 0

>  <DIFUSE_FUNC_ATOM>  (1172) 
n/a

>  <FINAL_SINGLE_POINT_ENERGY>  (1172) 
0

>  <NONCOV_INTER_ENERGY_QM>  (1172) 
0

>  <FF_Energy>  (1172) 
-5.26

>  <QM_Energy>  (1172) 
-12.96

>  <source>  (1172) 
ETAM_MSM

>  <Index>  (1172) 
7348

$$$$
ETAM-pdb3ok8-A-LYS-17:MSM-pdb3ok8-A-MET-13
     RDKit          3D

 20 18  0  0  0  0  0  0  0  0999 V2000
    1.2525    0.8679    0.0000 C   0  0  0  0  0  0  0  0  0  0  0  0
    2.0428    0.2902    0.1851 H   0  0  0  0  0  0  0  0  0  0  0  0
    1.1616    1.5610    0.7091 H   0  0  0  0  0  0  0  0  0  0  0  0
    1.4094    1.3694   -0.9549 H   0  0  0  0  0  0  0  0  0  0  0  0
    0.0000    0.0000    0.0000 C   0  0  0  0  0  0  0  0  0  0  0  0
    0.0107   -0.5851   -0.8161 H   0  0  0  0  0  0  0  0  0  0  0  0
    0.0100   -0.5851    0.8165 H   0  0  0  0  0  0  0  0  0  0  0  0
   -1.2525    0.8143   -0.0000 N   0  0  0  0  0  4  0  0  0  0  0  0
   -2.0137    0.2458   -0.3061 H   0  0  0  0  0  0  0  0  0  0  0  0
   -1.4291    1.1454    0.9255 H   0  0  0  0  0  0  0  0  0  0  0  0
   -1.1405    1.5899   -0.6192 H   0  0  0  0  0  0  0  0  0  0  0  0
    0.1329    1.0518    4.9985 C   0  0  0  0  0  0  0  0  0  0  0  0
    0.6147    0.7482    5.8405 H   0  0  0  0  0  0  0  0  0  0  0  0
   -0.7328    1.4923    5.2967 H   0  0  0  0  0  0  0  0  0  0  0  0
    0.7487    1.7925    4.4884 H   0  0  0  0  0  0  0  0  0  0  0  0
   -0.2038   -0.3495    3.9141 S   0  0  0  0  0  0  0  0  0  0  0  0
   -0.0030   -1.7102    5.0423 C   0  0  0  0  0  0  0  0  0  0  0  0
    0.3419   -2.5136    4.5511 H   0  0  0  0  0  0  0  0  0  0  0  0
    0.6490   -1.4627    5.7632 H   0  0  0  0  0  0  0  0  0  0  0  0
   -0.8847   -1.9382    5.4625 H   0  0  0  0  0  0  0  0  0  0  0  0
  1  5  1  0
  5  8  1  0
  1  2  1  0
  1  3  1  0
  1  4  1  0
  5  6  1  0
  5  7  1  0
  8  9  1  0
  8 10  1  0
  8 11  1  0
 12 16  1  0
 16 17  1  0
 12 13  1  0
 12 14  1  0
 12 15  1  0
 17 18  1  0
 17 19  1  0
 17 20  1  0
M  CHG  1   8   1
M  END
>  <PDB_ID>  (1173) 
pdb3ok8

>  <RESIDUE_NAME>  (1173) 
LYS   MET

>  <FRAG_NAME>  (1173) 
ETAM   MSM

>  <FRAG_ATOM_NUM>  (1173) 
fragi: 11  fragj: 9

>  <atom.prop.CHAIN_ID>  (1173) 
A A A A A A A A A A A Z Z Z Z Z Z Z Z Z

>  <atom.prop.IS_HEAVY_ATOM>  (1173) 
1 0 0 0 1 0 0 1 0 0 0 1 0 0 0 1 1 0 0 0

>  <DIFUSE_FUNC_ATOM>  (1173) 
n/a

>  <FINAL_SINGLE_POINT_ENERGY>  (1173) 
0

>  <NONCOV_INTER_ENERGY_QM>  (1173) 
0

>  <FF_Energy>  (1173) 
-4.54

>  <QM_Energy>  (1173) 
-9.65

>  <source>  (1173) 
ETAM_MSM

>  <Index>  (1173) 
7372

$$$$
ETAM-pdb3okq-A-LYS-561:MSM-pdb3okq-A-MET-557
     RDKit          3D

 20 18  0  0  0  0  0  0  0  0999 V2000
    1.2543    0.8798    0.0000 C   0  0  0  0  0  0  0  0  0  0  0  0
    1.1927    1.5137    0.7594 H   0  0  0  0  0  0  0  0  0  0  0  0
    1.2974    1.3648   -0.8633 H   0  0  0  0  0  0  0  0  0  0  0  0
    2.1560    0.2780    0.1143 H   0  0  0  0  0  0  0  0  0  0  0  0
    0.0000    0.0000    0.0000 C   0  0  0  0  0  0  0  0  0  0  0  0
    0.0161   -0.5824   -0.8165 H   0  0  0  0  0  0  0  0  0  0  0  0
    0.0159   -0.5819    0.8164 H   0  0  0  0  0  0  0  0  0  0  0  0
   -1.2543    0.8109    0.0000 N   0  0  0  0  0  4  0  0  0  0  0  0
   -1.2974    1.3497   -0.8391 H   0  0  0  0  0  0  0  0  0  0  0  0
   -2.0423    0.1985    0.0480 H   0  0  0  0  0  0  0  0  0  0  0  0
   -1.2527    1.4197    0.7914 H   0  0  0  0  0  0  0  0  0  0  0  0
   -0.2112    0.0733    3.4523 C   0  0  0  0  0  0  0  0  0  0  0  0
    0.3037    0.8492    3.0100 H   0  0  0  0  0  0  0  0  0  0  0  0
    0.2170   -0.7804    3.0625 H   0  0  0  0  0  0  0  0  0  0  0  0
   -0.0120    0.0977    4.5237 H   0  0  0  0  0  0  0  0  0  0  0  0
   -1.9707    0.1536    3.0238 S   0  0  0  0  0  0  0  0  0  0  0  0
   -2.5772   -1.3627    3.7752 C   0  0  0  0  0  0  0  0  0  0  0  0
   -2.0620   -2.1412    3.4164 H   0  0  0  0  0  0  0  0  0  0  0  0
   -2.4591   -1.3124    4.7670 H   0  0  0  0  0  0  0  0  0  0  0  0
   -3.5475   -1.4760    3.5595 H   0  0  0  0  0  0  0  0  0  0  0  0
  1  5  1  0
  5  8  1  0
  1  2  1  0
  1  3  1  0
  1  4  1  0
  5  6  1  0
  5  7  1  0
  8  9  1  0
  8 10  1  0
  8 11  1  0
 12 16  1  0
 16 17  1  0
 12 13  1  0
 12 14  1  0
 12 15  1  0
 17 18  1  0
 17 19  1  0
 17 20  1  0
M  CHG  1   8   1
M  END
>  <PDB_ID>  (1174) 
pdb3okq

>  <RESIDUE_NAME>  (1174) 
LYS   MET

>  <FRAG_NAME>  (1174) 
ETAM   MSM

>  <FRAG_ATOM_NUM>  (1174) 
fragi: 11  fragj: 9

>  <atom.prop.CHAIN_ID>  (1174) 
A A A A A A A A A A A Z Z Z Z Z Z Z Z Z

>  <atom.prop.IS_HEAVY_ATOM>  (1174) 
1 0 0 0 1 0 0 1 0 0 0 1 0 0 0 1 1 0 0 0

>  <DIFUSE_FUNC_ATOM>  (1174) 
n/a

>  <FINAL_SINGLE_POINT_ENERGY>  (1174) 
0

>  <NONCOV_INTER_ENERGY_QM>  (1174) 
0

>  <FF_Energy>  (1174) 
-4.03

>  <QM_Energy>  (1174) 
-12.22

>  <source>  (1174) 
ETAM_MSM

>  <Index>  (1174) 
7377

$$$$
ETAM-pdb3ol3-B-LYS-37:MSM-pdb3ol3-A-MET-9
     RDKit          3D

 20 18  0  0  0  0  0  0  0  0999 V2000
    1.2321    0.8767   -0.0000 C   0  0  0  0  0  0  0  0  0  0  0  0
    1.2142    1.4537    0.8173 H   0  0  0  0  0  0  0  0  0  0  0  0
    1.2136    1.4545   -0.8159 H   0  0  0  0  0  0  0  0  0  0  0  0
    2.1566    0.2992    0.0008 H   0  0  0  0  0  0  0  0  0  0  0  0
    0.0000    0.0000    0.0000 C   0  0  0  0  0  0  0  0  0  0  0  0
    0.0086   -0.5777   -0.8165 H   0  0  0  0  0  0  0  0  0  0  0  0
    0.0079   -0.5787    0.8161 H   0  0  0  0  0  0  0  0  0  0  0  0
   -1.2321    0.8272    0.0000 N   0  0  0  0  0  4  0  0  0  0  0  0
   -2.0236    0.2465    0.1932 H   0  0  0  0  0  0  0  0  0  0  0  0
   -1.1585    1.5354    0.7031 H   0  0  0  0  0  0  0  0  0  0  0  0
   -1.3452    1.2575   -0.8957 H   0  0  0  0  0  0  0  0  0  0  0  0
   -3.6114    1.5145    2.4202 C   0  0  0  0  0  0  0  0  0  0  0  0
   -3.5470    2.3678    2.9858 H   0  0  0  0  0  0  0  0  0  0  0  0
   -4.5040    1.0812    2.6808 H   0  0  0  0  0  0  0  0  0  0  0  0
   -3.6514    1.7948    1.3676 H   0  0  0  0  0  0  0  0  0  0  0  0
   -2.2326    0.3984    2.8012 S   0  0  0  0  0  0  0  0  0  0  0  0
   -0.9025    1.5989    2.8047 C   0  0  0  0  0  0  0  0  0  0  0  0
   -0.1897    1.3073    3.4441 H   0  0  0  0  0  0  0  0  0  0  0  0
   -0.5140    1.6722    1.8855 H   0  0  0  0  0  0  0  0  0  0  0  0
   -1.2564    2.4915    3.0871 H   0  0  0  0  0  0  0  0  0  0  0  0
  1  5  1  0
  5  8  1  0
  1  2  1  0
  1  3  1  0
  1  4  1  0
  5  6  1  0
  5  7  1  0
  8  9  1  0
  8 10  1  0
  8 11  1  0
 12 16  1  0
 16 17  1  0
 12 13  1  0
 12 14  1  0
 12 15  1  0
 17 18  1  0
 17 19  1  0
 17 20  1  0
M  CHG  1   8   1
M  END
>  <PDB_ID>  (1175) 
pdb3ol3

>  <RESIDUE_NAME>  (1175) 
LYS   MET

>  <FRAG_NAME>  (1175) 
ETAM   MSM

>  <FRAG_ATOM_NUM>  (1175) 
fragi: 11  fragj: 9

>  <atom.prop.CHAIN_ID>  (1175) 
A A A A A A A A A A A Z Z Z Z Z Z Z Z Z

>  <atom.prop.IS_HEAVY_ATOM>  (1175) 
1 0 0 0 1 0 0 1 0 0 0 1 0 0 0 1 1 0 0 0

>  <DIFUSE_FUNC_ATOM>  (1175) 
n/a

>  <FINAL_SINGLE_POINT_ENERGY>  (1175) 
0

>  <NONCOV_INTER_ENERGY_QM>  (1175) 
0

>  <FF_Energy>  (1175) 
9.31

>  <QM_Energy>  (1175) 
-1.96

>  <source>  (1175) 
ETAM_MSM

>  <Index>  (1175) 
7378

$$$$
ETAM-pdb3ol6-A-LYS-278:MSM-pdb3ol6-A-MET-6
     RDKit          3D

 20 18  0  0  0  0  0  0  0  0999 V2000
    1.2493    0.8745    0.0000 C   0  0  0  0  0  0  0  0  0  0  0  0
    1.5715    0.9656    0.9367 H   0  0  0  0  0  0  0  0  0  0  0  0
    1.0109    1.7662   -0.3714 H   0  0  0  0  0  0  0  0  0  0  0  0
    2.0455    0.4418   -0.6057 H   0  0  0  0  0  0  0  0  0  0  0  0
    0.0000    0.0000    0.0000 C   0  0  0  0  0  0  0  0  0  0  0  0
    0.0134   -0.5831   -0.8164 H   0  0  0  0  0  0  0  0  0  0  0  0
    0.0129   -0.5833    0.8164 H   0  0  0  0  0  0  0  0  0  0  0  0
   -1.2493    0.8142   -0.0000 N   0  0  0  0  0  4  0  0  0  0  0  0
   -1.0157    1.7777   -0.1250 H   0  0  0  0  0  0  0  0  0  0  0  0
   -1.8400    0.5117   -0.7468 H   0  0  0  0  0  0  0  0  0  0  0  0
   -1.7222    0.6942    0.8721 H   0  0  0  0  0  0  0  0  0  0  0  0
    0.1596   -0.6198    4.7068 C   0  0  0  0  0  0  0  0  0  0  0  0
    0.3957   -1.6116    4.7430 H   0  0  0  0  0  0  0  0  0  0  0  0
   -0.2951   -0.4007    5.5923 H   0  0  0  0  0  0  0  0  0  0  0  0
    1.0801   -0.0412    4.6294 H   0  0  0  0  0  0  0  0  0  0  0  0
   -0.9524   -0.2818    3.3208 S   0  0  0  0  0  0  0  0  0  0  0  0
   -2.5185    0.0025    4.1640 C   0  0  0  0  0  0  0  0  0  0  0  0
   -2.3863   -0.0955    5.1497 H   0  0  0  0  0  0  0  0  0  0  0  0
   -2.8417    0.9257    3.9598 H   0  0  0  0  0  0  0  0  0  0  0  0
   -3.1910   -0.6661    3.8479 H   0  0  0  0  0  0  0  0  0  0  0  0
  1  5  1  0
  5  8  1  0
  1  2  1  0
  1  3  1  0
  1  4  1  0
  5  6  1  0
  5  7  1  0
  8  9  1  0
  8 10  1  0
  8 11  1  0
 12 16  1  0
 16 17  1  0
 12 13  1  0
 12 14  1  0
 12 15  1  0
 17 18  1  0
 17 19  1  0
 17 20  1  0
M  CHG  1   8   1
M  END
>  <PDB_ID>  (1176) 
pdb3ol6

>  <RESIDUE_NAME>  (1176) 
LYS   MET

>  <FRAG_NAME>  (1176) 
ETAM   MSM

>  <FRAG_ATOM_NUM>  (1176) 
fragi: 11  fragj: 9

>  <atom.prop.CHAIN_ID>  (1176) 
A A A A A A A A A A A Z Z Z Z Z Z Z Z Z

>  <atom.prop.IS_HEAVY_ATOM>  (1176) 
1 0 0 0 1 0 0 1 0 0 0 1 0 0 0 1 1 0 0 0

>  <DIFUSE_FUNC_ATOM>  (1176) 
n/a

>  <FINAL_SINGLE_POINT_ENERGY>  (1176) 
0

>  <NONCOV_INTER_ENERGY_QM>  (1176) 
0

>  <FF_Energy>  (1176) 
-4.84

>  <QM_Energy>  (1176) 
-12.59

>  <source>  (1176) 
ETAM_MSM

>  <Index>  (1176) 
7380

$$$$
ETAM-pdb4maf-D-LYS-335:MSM-pdb4maf-D-MET-129
     RDKit          3D

 20 18  0  0  0  0  0  0  0  0999 V2000
    1.2567    0.9073    0.0000 C   0  0  0  0  0  0  0  0  0  0  0  0
    1.8764    0.5690   -0.7063 H   0  0  0  0  0  0  0  0  0  0  0  0
    1.6902    0.8250    0.8957 H   0  0  0  0  0  0  0  0  0  0  0  0
    1.0283    1.9551   -0.1952 H   0  0  0  0  0  0  0  0  0  0  0  0
    0.0000    0.0000    0.0000 C   0  0  0  0  0  0  0  0  0  0  0  0
    0.0356   -0.5794   -0.8159 H   0  0  0  0  0  0  0  0  0  0  0  0
    0.0352   -0.5804    0.8166 H   0  0  0  0  0  0  0  0  0  0  0  0
   -1.2567    0.7890   -0.0000 N   0  0  0  0  0  4  0  0  0  0  0  0
   -1.0905    1.6815   -0.4190 H   0  0  0  0  0  0  0  0  0  0  0  0
   -1.9569    0.3016   -0.5228 H   0  0  0  0  0  0  0  0  0  0  0  0
   -1.5714    0.9154    0.9413 H   0  0  0  0  0  0  0  0  0  0  0  0
   -2.8336    1.0414    5.1534 C   0  0  0  0  0  0  0  0  0  0  0  0
   -3.4393    0.2901    5.4595 H   0  0  0  0  0  0  0  0  0  0  0  0
   -3.0370    1.8489    5.7302 H   0  0  0  0  0  0  0  0  0  0  0  0
   -1.7975    0.7447    5.3160 H   0  0  0  0  0  0  0  0  0  0  0  0
   -3.0950    1.4110    3.4140 S   0  0  0  0  0  0  0  0  0  0  0  0
   -4.4486    2.5548    3.3495 C   0  0  0  0  0  0  0  0  0  0  0  0
   -4.4615    3.0234    2.4616 H   0  0  0  0  0  0  0  0  0  0  0  0
   -5.3176    2.0678    3.4722 H   0  0  0  0  0  0  0  0  0  0  0  0
   -4.3555    3.2410    4.0773 H   0  0  0  0  0  0  0  0  0  0  0  0
  1  5  1  0
  5  8  1  0
  1  2  1  0
  1  3  1  0
  1  4  1  0
  5  6  1  0
  5  7  1  0
  8  9  1  0
  8 10  1  0
  8 11  1  0
 12 16  1  0
 16 17  1  0
 12 13  1  0
 12 14  1  0
 12 15  1  0
 17 18  1  0
 17 19  1  0
 17 20  1  0
M  CHG  1   8   1
M  END
>  <PDB_ID>  (1177) 
pdb4maf

>  <RESIDUE_NAME>  (1177) 
LYS   MET

>  <FRAG_NAME>  (1177) 
ETAM   MSM

>  <FRAG_ATOM_NUM>  (1177) 
fragi: 11  fragj: 9

>  <atom.prop.CHAIN_ID>  (1177) 
A A A A A A A A A A A Z Z Z Z Z Z Z Z Z

>  <atom.prop.IS_HEAVY_ATOM>  (1177) 
1 0 0 0 1 0 0 1 0 0 0 1 0 0 0 1 1 0 0 0

>  <DIFUSE_FUNC_ATOM>  (1177) 
n/a

>  <FINAL_SINGLE_POINT_ENERGY>  (1177) 
0

>  <NONCOV_INTER_ENERGY_QM>  (1177) 
0

>  <FF_Energy>  (1177) 
-4.55

>  <QM_Energy>  (1177) 
-11.59

>  <source>  (1177) 
ETAM_MSM

>  <Index>  (1177) 
7387

$$$$
ETAM-pdb4maf-H-LYS-286:MSM-pdb4maf-H-MET-354
     RDKit          3D

 20 18  0  0  0  0  0  0  0  0999 V2000
    1.2309    0.8835    0.0000 C   0  0  0  0  0  0  0  0  0  0  0  0
    1.0897    1.6301    0.6428 H   0  0  0  0  0  0  0  0  0  0  0  0
    1.3693    1.2396   -0.9186 H   0  0  0  0  0  0  0  0  0  0  0  0
    2.1203    0.3285    0.2985 H   0  0  0  0  0  0  0  0  0  0  0  0
    0.0000    0.0000    0.0000 C   0  0  0  0  0  0  0  0  0  0  0  0
    0.0135   -0.5775   -0.8162 H   0  0  0  0  0  0  0  0  0  0  0  0
    0.0132   -0.5770    0.8167 H   0  0  0  0  0  0  0  0  0  0  0  0
   -1.2309    0.8226   -0.0000 N   0  0  0  0  0  4  0  0  0  0  0  0
   -1.7290    0.6815   -0.8569 H   0  0  0  0  0  0  0  0  0  0  0  0
   -1.8122    0.5557    0.7696 H   0  0  0  0  0  0  0  0  0  0  0  0
   -0.9879    1.7896    0.0874 H   0  0  0  0  0  0  0  0  0  0  0  0
   -4.5066   -0.2841   -3.2320 C   0  0  0  0  0  0  0  0  0  0  0  0
   -4.7985   -1.2485   -3.4184 H   0  0  0  0  0  0  0  0  0  0  0  0
   -5.0831    0.3026   -3.8436 H   0  0  0  0  0  0  0  0  0  0  0  0
   -4.7445   -0.0447   -2.1956 H   0  0  0  0  0  0  0  0  0  0  0  0
   -2.7468   -0.0669   -3.6177 S   0  0  0  0  0  0  0  0  0  0  0  0
   -2.5983    1.7109   -3.5366 C   0  0  0  0  0  0  0  0  0  0  0  0
   -2.6684    2.0987   -4.4577 H   0  0  0  0  0  0  0  0  0  0  0  0
   -3.3309    2.0856   -2.9647 H   0  0  0  0  0  0  0  0  0  0  0  0
   -1.7114    1.9587   -3.1406 H   0  0  0  0  0  0  0  0  0  0  0  0
  1  5  1  0
  5  8  1  0
  1  2  1  0
  1  3  1  0
  1  4  1  0
  5  6  1  0
  5  7  1  0
  8  9  1  0
  8 10  1  0
  8 11  1  0
 12 16  1  0
 16 17  1  0
 12 13  1  0
 12 14  1  0
 12 15  1  0
 17 18  1  0
 17 19  1  0
 17 20  1  0
M  CHG  1   8   1
M  END
>  <PDB_ID>  (1178) 
pdb4maf

>  <RESIDUE_NAME>  (1178) 
LYS   MET

>  <FRAG_NAME>  (1178) 
ETAM   MSM

>  <FRAG_ATOM_NUM>  (1178) 
fragi: 11  fragj: 9

>  <atom.prop.CHAIN_ID>  (1178) 
A A A A A A A A A A A Z Z Z Z Z Z Z Z Z

>  <atom.prop.IS_HEAVY_ATOM>  (1178) 
1 0 0 0 1 0 0 1 0 0 0 1 0 0 0 1 1 0 0 0

>  <DIFUSE_FUNC_ATOM>  (1178) 
n/a

>  <FINAL_SINGLE_POINT_ENERGY>  (1178) 
0

>  <NONCOV_INTER_ENERGY_QM>  (1178) 
0

>  <FF_Energy>  (1178) 
-2.91

>  <QM_Energy>  (1178) 
-8.65

>  <source>  (1178) 
ETAM_MSM

>  <Index>  (1178) 
7389

$$$$
ETAM-pdb3onm-A-LYS-135:MSM-pdb3onm-A-MET-143
     RDKit          3D

 20 18  0  0  0  0  0  0  0  0999 V2000
    1.2860    0.8410    0.0000 C   0  0  0  0  0  0  0  0  0  0  0  0
    1.5230    1.0579    0.9385 H   0  0  0  0  0  0  0  0  0  0  0  0
    1.1237    1.6674   -0.5229 H   0  0  0  0  0  0  0  0  0  0  0  0
    2.1214    0.3054   -0.4507 H   0  0  0  0  0  0  0  0  0  0  0  0
    0.0000    0.0000    0.0000 C   0  0  0  0  0  0  0  0  0  0  0  0
    0.0026   -0.5970   -0.8164 H   0  0  0  0  0  0  0  0  0  0  0  0
    0.0024   -0.5977    0.8162 H   0  0  0  0  0  0  0  0  0  0  0  0
   -1.2860    0.8050   -0.0000 N   0  0  0  0  0  4  0  0  0  0  0  0
   -1.9987    0.2635   -0.4333 H   0  0  0  0  0  0  0  0  0  0  0  0
   -1.5325    1.0097    0.9419 H   0  0  0  0  0  0  0  0  0  0  0  0
   -1.1333    1.6463   -0.5083 H   0  0  0  0  0  0  0  0  0  0  0  0
   -2.2354   -1.3123    3.8565 C   0  0  0  0  0  0  0  0  0  0  0  0
   -2.9474   -0.6097    4.0510 H   0  0  0  0  0  0  0  0  0  0  0  0
   -1.3558   -0.9385    4.2099 H   0  0  0  0  0  0  0  0  0  0  0  0
   -2.4789   -2.2186    4.4110 H   0  0  0  0  0  0  0  0  0  0  0  0
   -2.1212   -1.6257    2.0682 S   0  0  0  0  0  0  0  0  0  0  0  0
   -0.7558   -2.7764    1.9984 C   0  0  0  0  0  0  0  0  0  0  0  0
   -0.9647   -3.5822    2.5558 H   0  0  0  0  0  0  0  0  0  0  0  0
   -0.6019   -3.0615    1.0504 H   0  0  0  0  0  0  0  0  0  0  0  0
    0.0739   -2.3382    2.3497 H   0  0  0  0  0  0  0  0  0  0  0  0
  1  5  1  0
  5  8  1  0
  1  2  1  0
  1  3  1  0
  1  4  1  0
  5  6  1  0
  5  7  1  0
  8  9  1  0
  8 10  1  0
  8 11  1  0
 12 16  1  0
 16 17  1  0
 12 13  1  0
 12 14  1  0
 12 15  1  0
 17 18  1  0
 17 19  1  0
 17 20  1  0
M  CHG  1   8   1
M  END
>  <PDB_ID>  (1179) 
pdb3onm

>  <RESIDUE_NAME>  (1179) 
LYS   MET

>  <FRAG_NAME>  (1179) 
ETAM   MSM

>  <FRAG_ATOM_NUM>  (1179) 
fragi: 11  fragj: 9

>  <atom.prop.CHAIN_ID>  (1179) 
A A A A A A A A A A A Z Z Z Z Z Z Z Z Z

>  <atom.prop.IS_HEAVY_ATOM>  (1179) 
1 0 0 0 1 0 0 1 0 0 0 1 0 0 0 1 1 0 0 0

>  <DIFUSE_FUNC_ATOM>  (1179) 
n/a

>  <FINAL_SINGLE_POINT_ENERGY>  (1179) 
0

>  <NONCOV_INTER_ENERGY_QM>  (1179) 
0

>  <FF_Energy>  (1179) 
-3.05

>  <QM_Energy>  (1179) 
-12.22

>  <source>  (1179) 
ETAM_MSM

>  <Index>  (1179) 
7398

$$$$
ETAM-pdb4mge-B-LYS-99:MSM-pdb4mge-B-MET-1
     RDKit          3D

 20 18  0  0  0  0  0  0  0  0999 V2000
    1.2425    0.8767    0.0000 C   0  0  0  0  0  0  0  0  0  0  0  0
    2.0455    0.2886    0.0627 H   0  0  0  0  0  0  0  0  0  0  0  0
    1.2030    1.4832    0.7901 H   0  0  0  0  0  0  0  0  0  0  0  0
    1.3188    1.4807   -0.9041 H   0  0  0  0  0  0  0  0  0  0  0  0
    0.0000    0.0000    0.0000 C   0  0  0  0  0  0  0  0  0  0  0  0
    0.0125   -0.5809   -0.8166 H   0  0  0  0  0  0  0  0  0  0  0  0
    0.0118   -0.5816    0.8162 H   0  0  0  0  0  0  0  0  0  0  0  0
   -1.2425    0.8180    0.0000 N   0  0  0  0  0  4  0  0  0  0  0  0
   -1.0322    1.7415   -0.3195 H   0  0  0  0  0  0  0  0  0  0  0  0
   -1.9158    0.3987   -0.6084 H   0  0  0  0  0  0  0  0  0  0  0  0
   -1.6115    0.8606    0.9280 H   0  0  0  0  0  0  0  0  0  0  0  0
    4.3419   -2.4685    0.6699 C   0  0  0  0  0  0  0  0  0  0  0  0
    4.8438   -2.0530    1.4614 H   0  0  0  0  0  0  0  0  0  0  0  0
    5.0330   -3.0483    0.1807 H   0  0  0  0  0  0  0  0  0  0  0  0
    3.5607   -3.1200    1.0616 H   0  0  0  0  0  0  0  0  0  0  0  0
    3.6978   -1.1840   -0.4225 S   0  0  0  0  0  0  0  0  0  0  0  0
    5.1820   -0.2080   -0.6772 C   0  0  0  0  0  0  0  0  0  0  0  0
    4.9528    0.7650   -0.6379 H   0  0  0  0  0  0  0  0  0  0  0  0
    5.8495   -0.4223    0.0372 H   0  0  0  0  0  0  0  0  0  0  0  0
    5.5726   -0.4215   -1.5728 H   0  0  0  0  0  0  0  0  0  0  0  0
  1  5  1  0
  5  8  1  0
  1  2  1  0
  1  3  1  0
  1  4  1  0
  5  6  1  0
  5  7  1  0
  8  9  1  0
  8 10  1  0
  8 11  1  0
 12 16  1  0
 16 17  1  0
 12 13  1  0
 12 14  1  0
 12 15  1  0
 17 18  1  0
 17 19  1  0
 17 20  1  0
M  CHG  1   8   1
M  END
>  <PDB_ID>  (1180) 
pdb4mge

>  <RESIDUE_NAME>  (1180) 
LYS   MET

>  <FRAG_NAME>  (1180) 
ETAM   MSM

>  <FRAG_ATOM_NUM>  (1180) 
fragi: 11  fragj: 9

>  <atom.prop.CHAIN_ID>  (1180) 
A A A A A A A A A A A Z Z Z Z Z Z Z Z Z

>  <atom.prop.IS_HEAVY_ATOM>  (1180) 
1 0 0 0 1 0 0 1 0 0 0 1 0 0 0 1 1 0 0 0

>  <DIFUSE_FUNC_ATOM>  (1180) 
n/a

>  <FINAL_SINGLE_POINT_ENERGY>  (1180) 
0

>  <NONCOV_INTER_ENERGY_QM>  (1180) 
0

>  <FF_Energy>  (1180) 
6.4

>  <QM_Energy>  (1180) 
-3.84

>  <source>  (1180) 
ETAM_MSM

>  <Index>  (1180) 
7402

$$$$
ETAM-pdb4mco-B-LYS-186:MSM-pdb4mco-B-MET-183
     RDKit          3D

 20 18  0  0  0  0  0  0  0  0999 V2000
    1.2415    0.8862   -0.0000 C   0  0  0  0  0  0  0  0  0  0  0  0
    1.1987    1.4682    0.7745 H   0  0  0  0  0  0  0  0  0  0  0  0
    1.2390    1.4114   -0.8158 H   0  0  0  0  0  0  0  0  0  0  0  0
    2.1567    0.2959    0.0446 H   0  0  0  0  0  0  0  0  0  0  0  0
    0.0000    0.0000    0.0000 C   0  0  0  0  0  0  0  0  0  0  0  0
   -0.0000   -0.5543   -0.7957 H   0  0  0  0  0  0  0  0  0  0  0  0
    0.0002   -0.5533    0.7967 H   0  0  0  0  0  0  0  0  0  0  0  0
   -1.2415    0.8180    0.0000 N   0  0  0  0  0  4  0  0  0  0  0  0
   -1.2646    1.3342   -0.7249 H   0  0  0  0  0  0  0  0  0  0  0  0
   -1.9552    0.2872    0.0003 H   0  0  0  0  0  0  0  0  0  0  0  0
   -1.2651    1.3353    0.7243 H   0  0  0  0  0  0  0  0  0  0  0  0
   -3.4194   -2.6930    2.0456 C   0  0  0  0  0  0  0  0  0  0  0  0
   -3.6210   -2.8100    1.1040 H   0  0  0  0  0  0  0  0  0  0  0  0
   -4.1996   -2.8900    2.5868 H   0  0  0  0  0  0  0  0  0  0  0  0
   -2.6042   -3.3593    2.3277 H   0  0  0  0  0  0  0  0  0  0  0  0
   -2.9511   -0.9584    2.3220 S   0  0  0  0  0  0  0  0  0  0  0  0
   -3.1174   -0.8438    4.0892 C   0  0  0  0  0  0  0  0  0  0  0  0
   -2.8923    0.0465    4.3670 H   0  0  0  0  0  0  0  0  0  0  0  0
   -4.0255   -1.0432    4.3310 H   0  0  0  0  0  0  0  0  0  0  0  0
   -2.5235   -1.4759    4.5010 H   0  0  0  0  0  0  0  0  0  0  0  0
  1  5  1  0
  5  8  1  0
  1  2  1  0
  1  3  1  0
  1  4  1  0
  5  6  1  0
  5  7  1  0
  8  9  1  0
  8 10  1  0
  8 11  1  0
 12 16  1  0
 16 17  1  0
 12 13  1  0
 12 14  1  0
 12 15  1  0
 17 18  1  0
 17 19  1  0
 17 20  1  0
M  CHG  1   8   1
M  END
>  <PDB_ID>  (1181) 
pdb4mco

>  <RESIDUE_NAME>  (1181) 
LYS   MET

>  <FRAG_NAME>  (1181) 
ETAM   MSM

>  <FRAG_ATOM_NUM>  (1181) 
fragi: 11  fragj: 9

>  <atom.prop.CHAIN_ID>  (1181) 
A A A A A A A A A A A Z Z Z Z Z Z Z Z Z

>  <atom.prop.IS_HEAVY_ATOM>  (1181) 
1 0 0 0 1 0 0 1 0 0 0 1 0 0 0 1 1 0 0 0

>  <DIFUSE_FUNC_ATOM>  (1181) 
n/a

>  <FINAL_SINGLE_POINT_ENERGY>  (1181) 
0

>  <NONCOV_INTER_ENERGY_QM>  (1181) 
0

>  <FF_Energy>  (1181) 
-5.43

>  <QM_Energy>  (1181) 
-13.6

>  <source>  (1181) 
ETAM_MSM

>  <Index>  (1181) 
7405

$$$$
ETAM-pdb3osv-B-LYS-26:MSM-pdb3osv-B-MET-66
     RDKit          3D

 20 18  0  0  0  0  0  0  0  0999 V2000
    1.2566    0.8700    0.0000 C   0  0  0  0  0  0  0  0  0  0  0  0
    2.0028    0.3582    0.3977 H   0  0  0  0  0  0  0  0  0  0  0  0
    1.0756    1.6973    0.5097 H   0  0  0  0  0  0  0  0  0  0  0  0
    1.5395    1.1497   -1.0148 H   0  0  0  0  0  0  0  0  0  0  0  0
    0.0000    0.0000    0.0000 C   0  0  0  0  0  0  0  0  0  0  0  0
    0.0194   -0.5916   -0.8161 H   0  0  0  0  0  0  0  0  0  0  0  0
    0.0191   -0.5916    0.8159 H   0  0  0  0  0  0  0  0  0  0  0  0
   -1.2566    0.7930    0.0000 N   0  0  0  0  0  4  0  0  0  0  0  0
   -1.8306    0.5071    0.7674 H   0  0  0  0  0  0  0  0  0  0  0  0
   -1.0372    1.7645    0.0910 H   0  0  0  0  0  0  0  0  0  0  0  0
   -1.7466    0.6405   -0.8579 H   0  0  0  0  0  0  0  0  0  0  0  0
   -0.1527    4.2363   -2.8122 C   0  0  0  0  0  0  0  0  0  0  0  0
    0.3615    3.3423   -2.6884 H   0  0  0  0  0  0  0  0  0  0  0  0
    0.5080    4.9501   -2.4454 H   0  0  0  0  0  0  0  0  0  0  0  0
   -0.2797    4.4079   -3.8811 H   0  0  0  0  0  0  0  0  0  0  0  0
   -1.6946    4.2180   -1.7567 S   0  0  0  0  0  0  0  0  0  0  0  0
   -2.9681    4.1896   -3.0607 C   0  0  0  0  0  0  0  0  0  0  0  0
   -3.7535    3.6746   -2.7298 H   0  0  0  0  0  0  0  0  0  0  0  0
   -3.2337    5.1272   -3.2689 H   0  0  0  0  0  0  0  0  0  0  0  0
   -2.5875    3.7525   -3.8699 H   0  0  0  0  0  0  0  0  0  0  0  0
  1  5  1  0
  5  8  1  0
  1  2  1  0
  1  3  1  0
  1  4  1  0
  5  6  1  0
  5  7  1  0
  8  9  1  0
  8 10  1  0
  8 11  1  0
 12 16  1  0
 16 17  1  0
 12 13  1  0
 12 14  1  0
 12 15  1  0
 17 18  1  0
 17 19  1  0
 17 20  1  0
M  CHG  1   8   1
M  END
>  <PDB_ID>  (1182) 
pdb3osv

>  <RESIDUE_NAME>  (1182) 
LYS   MET

>  <FRAG_NAME>  (1182) 
ETAM   MSM

>  <FRAG_ATOM_NUM>  (1182) 
fragi: 11  fragj: 9

>  <atom.prop.CHAIN_ID>  (1182) 
A A A A A A A A A A A Z Z Z Z Z Z Z Z Z

>  <atom.prop.IS_HEAVY_ATOM>  (1182) 
1 0 0 0 1 0 0 1 0 0 0 1 0 0 0 1 1 0 0 0

>  <DIFUSE_FUNC_ATOM>  (1182) 
n/a

>  <FINAL_SINGLE_POINT_ENERGY>  (1182) 
0

>  <NONCOV_INTER_ENERGY_QM>  (1182) 
0

>  <FF_Energy>  (1182) 
-4.1

>  <QM_Energy>  (1182) 
-10.54

>  <source>  (1182) 
ETAM_MSM

>  <Index>  (1182) 
7417

$$$$
ETAM-pdb4mlo-A-LYS-203:MSM-pdb4mlo-A-MET-200
     RDKit          3D

 20 18  0  0  0  0  0  0  0  0999 V2000
    1.2481    0.8491   -0.0000 C   0  0  0  0  0  0  0  0  0  0  0  0
    1.3127    1.3381    0.8673 H   0  0  0  0  0  0  0  0  0  0  0  0
    1.2008    1.5020   -0.7534 H   0  0  0  0  0  0  0  0  0  0  0  0
    2.1573    0.2604   -0.1214 H   0  0  0  0  0  0  0  0  0  0  0  0
    0.0000    0.0000    0.0000 C   0  0  0  0  0  0  0  0  0  0  0  0
   -0.0127   -0.5784   -0.8166 H   0  0  0  0  0  0  0  0  0  0  0  0
   -0.0131   -0.5787    0.8162 H   0  0  0  0  0  0  0  0  0  0  0  0
   -1.2481    0.8541    0.0000 N   0  0  0  0  0  4  0  0  0  0  0  0
   -1.1553    1.5552    0.7007 H   0  0  0  0  0  0  0  0  0  0  0  0
   -1.3473    1.2747   -0.8973 H   0  0  0  0  0  0  0  0  0  0  0  0
   -2.0325    0.2737    0.1958 H   0  0  0  0  0  0  0  0  0  0  0  0
   -1.5667   -1.2054   -4.4392 C   0  0  0  0  0  0  0  0  0  0  0  0
   -2.2632   -1.3931   -5.1642 H   0  0  0  0  0  0  0  0  0  0  0  0
   -0.9941   -2.0512   -4.3751 H   0  0  0  0  0  0  0  0  0  0  0  0
   -0.9337   -0.3833   -4.7732 H   0  0  0  0  0  0  0  0  0  0  0  0
   -2.3583   -0.8472   -2.8663 S   0  0  0  0  0  0  0  0  0  0  0  0
   -3.5285    0.4227   -3.3843 C   0  0  0  0  0  0  0  0  0  0  0  0
   -3.7277    0.3109   -4.3565 H   0  0  0  0  0  0  0  0  0  0  0  0
   -4.3711    0.3305   -2.8558 H   0  0  0  0  0  0  0  0  0  0  0  0
   -3.1286    1.3245   -3.2247 H   0  0  0  0  0  0  0  0  0  0  0  0
  1  5  1  0
  5  8  1  0
  1  2  1  0
  1  3  1  0
  1  4  1  0
  5  6  1  0
  5  7  1  0
  8  9  1  0
  8 10  1  0
  8 11  1  0
 12 16  1  0
 16 17  1  0
 12 13  1  0
 12 14  1  0
 12 15  1  0
 17 18  1  0
 17 19  1  0
 17 20  1  0
M  CHG  1   8   1
M  END
>  <PDB_ID>  (1183) 
pdb4mlo

>  <RESIDUE_NAME>  (1183) 
LYS   MET

>  <FRAG_NAME>  (1183) 
ETAM   MSM

>  <FRAG_ATOM_NUM>  (1183) 
fragi: 11  fragj: 9

>  <atom.prop.CHAIN_ID>  (1183) 
A A A A A A A A A A A Z Z Z Z Z Z Z Z Z

>  <atom.prop.IS_HEAVY_ATOM>  (1183) 
1 0 0 0 1 0 0 1 0 0 0 1 0 0 0 1 1 0 0 0

>  <DIFUSE_FUNC_ATOM>  (1183) 
n/a

>  <FINAL_SINGLE_POINT_ENERGY>  (1183) 
0

>  <NONCOV_INTER_ENERGY_QM>  (1183) 
0

>  <FF_Energy>  (1183) 
-5.02

>  <QM_Energy>  (1183) 
-11.78

>  <source>  (1183) 
ETAM_MSM

>  <Index>  (1183) 
7424

$$$$
ETAM-pdb3otf-A-LYS-530:MSM-pdb3otf-A-MET-563
     RDKit          3D

 20 18  0  0  0  0  0  0  0  0999 V2000
    1.2319    0.8771    0.0000 C   0  0  0  0  0  0  0  0  0  0  0  0
    1.2149    1.4547    0.8174 H   0  0  0  0  0  0  0  0  0  0  0  0
    1.2147    1.4549   -0.8165 H   0  0  0  0  0  0  0  0  0  0  0  0
    2.1562    0.2994    0.0008 H   0  0  0  0  0  0  0  0  0  0  0  0
    0.0000    0.0000    0.0000 C   0  0  0  0  0  0  0  0  0  0  0  0
    0.0090   -0.5779   -0.8163 H   0  0  0  0  0  0  0  0  0  0  0  0
    0.0089   -0.5780    0.8162 H   0  0  0  0  0  0  0  0  0  0  0  0
   -1.2319    0.8286   -0.0000 N   0  0  0  0  0  4  0  0  0  0  0  0
   -1.6750    0.7668    0.8948 H   0  0  0  0  0  0  0  0  0  0  0  0
   -0.9937    1.7808   -0.1890 H   0  0  0  0  0  0  0  0  0  0  0  0
   -1.8578    0.4942   -0.7052 H   0  0  0  0  0  0  0  0  0  0  0  0
    0.5635    4.2157    2.8242 C   0  0  0  0  0  0  0  0  0  0  0  0
    0.0707    5.1048    2.9472 H   0  0  0  0  0  0  0  0  0  0  0  0
    1.4428    4.3118    3.3391 H   0  0  0  0  0  0  0  0  0  0  0  0
   -0.0268    3.4235    3.2847 H   0  0  0  0  0  0  0  0  0  0  0  0
    0.8811    3.9011    1.0769 S   0  0  0  0  0  0  0  0  0  0  0  0
   -0.7558    3.4206    0.5104 C   0  0  0  0  0  0  0  0  0  0  0  0
   -1.3186    4.2384    0.3862 H   0  0  0  0  0  0  0  0  0  0  0  0
   -0.6772    2.9339   -0.3598 H   0  0  0  0  0  0  0  0  0  0  0  0
   -1.1806    2.8230    1.1897 H   0  0  0  0  0  0  0  0  0  0  0  0
  1  5  1  0
  5  8  1  0
  1  2  1  0
  1  3  1  0
  1  4  1  0
  5  6  1  0
  5  7  1  0
  8  9  1  0
  8 10  1  0
  8 11  1  0
 12 16  1  0
 16 17  1  0
 12 13  1  0
 12 14  1  0
 12 15  1  0
 17 18  1  0
 17 19  1  0
 17 20  1  0
M  CHG  1   8   1
M  END
>  <PDB_ID>  (1184) 
pdb3otf

>  <RESIDUE_NAME>  (1184) 
LYS   MET

>  <FRAG_NAME>  (1184) 
ETAM   MSM

>  <FRAG_ATOM_NUM>  (1184) 
fragi: 11  fragj: 9

>  <atom.prop.CHAIN_ID>  (1184) 
A A A A A A A A A A A Z Z Z Z Z Z Z Z Z

>  <atom.prop.IS_HEAVY_ATOM>  (1184) 
1 0 0 0 1 0 0 1 0 0 0 1 0 0 0 1 1 0 0 0

>  <DIFUSE_FUNC_ATOM>  (1184) 
n/a

>  <FINAL_SINGLE_POINT_ENERGY>  (1184) 
0

>  <NONCOV_INTER_ENERGY_QM>  (1184) 
0

>  <FF_Energy>  (1184) 
20.95

>  <QM_Energy>  (1184) 
14.02

>  <source>  (1184) 
ETAM_MSM

>  <Index>  (1184) 
7433

$$$$
ETAM-pdb3ors-C-LYS-120:MSM-pdb3ors-C-MET-22
     RDKit          3D

 20 18  0  0  0  0  0  0  0  0999 V2000
    1.2546    0.8525    0.0000 C   0  0  0  0  0  0  0  0  0  0  0  0
    1.1443    1.5843   -0.6661 H   0  0  0  0  0  0  0  0  0  0  0  0
    2.0306    0.2788   -0.2464 H   0  0  0  0  0  0  0  0  0  0  0  0
    1.4431    1.2957    0.9778 H   0  0  0  0  0  0  0  0  0  0  0  0
    0.0000    0.0000    0.0000 C   0  0  0  0  0  0  0  0  0  0  0  0
   -0.0076   -0.5807   -0.8162 H   0  0  0  0  0  0  0  0  0  0  0  0
   -0.0082   -0.5810    0.8166 H   0  0  0  0  0  0  0  0  0  0  0  0
   -1.2546    0.8431   -0.0000 N   0  0  0  0  0  4  0  0  0  0  0  0
   -1.9758    0.3434   -0.4703 H   0  0  0  0  0  0  0  0  0  0  0  0
   -1.5198    1.0222    0.9430 H   0  0  0  0  0  0  0  0  0  0  0  0
   -1.0647    1.6992   -0.4725 H   0  0  0  0  0  0  0  0  0  0  0  0
   -0.3564    1.3897    4.4109 C   0  0  0  0  0  0  0  0  0  0  0  0
   -0.2046    2.3262    4.0129 H   0  0  0  0  0  0  0  0  0  0  0  0
    0.5279    0.8877    4.2557 H   0  0  0  0  0  0  0  0  0  0  0  0
   -0.5058    1.4958    5.4854 H   0  0  0  0  0  0  0  0  0  0  0  0
   -1.7261    0.5449    3.5412 S   0  0  0  0  0  0  0  0  0  0  0  0
   -1.6573   -1.0847    4.2955 C   0  0  0  0  0  0  0  0  0  0  0  0
   -1.9317   -1.7740    3.6247 H   0  0  0  0  0  0  0  0  0  0  0  0
   -0.7243   -1.2705    4.6025 H   0  0  0  0  0  0  0  0  0  0  0  0
   -2.2783   -1.1151    5.0784 H   0  0  0  0  0  0  0  0  0  0  0  0
  1  5  1  0
  5  8  1  0
  1  2  1  0
  1  3  1  0
  1  4  1  0
  5  6  1  0
  5  7  1  0
  8  9  1  0
  8 10  1  0
  8 11  1  0
 12 16  1  0
 16 17  1  0
 12 13  1  0
 12 14  1  0
 12 15  1  0
 17 18  1  0
 17 19  1  0
 17 20  1  0
M  CHG  1   8   1
M  END
>  <PDB_ID>  (1185) 
pdb3ors

>  <RESIDUE_NAME>  (1185) 
LYS   MET

>  <FRAG_NAME>  (1185) 
ETAM   MSM

>  <FRAG_ATOM_NUM>  (1185) 
fragi: 11  fragj: 9

>  <atom.prop.CHAIN_ID>  (1185) 
A A A A A A A A A A A Z Z Z Z Z Z Z Z Z

>  <atom.prop.IS_HEAVY_ATOM>  (1185) 
1 0 0 0 1 0 0 1 0 0 0 1 0 0 0 1 1 0 0 0

>  <DIFUSE_FUNC_ATOM>  (1185) 
n/a

>  <FINAL_SINGLE_POINT_ENERGY>  (1185) 
0

>  <NONCOV_INTER_ENERGY_QM>  (1185) 
0

>  <FF_Energy>  (1185) 
-5.51

>  <QM_Energy>  (1185) 
-14.69

>  <source>  (1185) 
ETAM_MSM

>  <Index>  (1185) 
7443

$$$$
ETAM-pdb3ors-D-LYS-120:MSM-pdb3ors-D-MET-22
     RDKit          3D

 20 18  0  0  0  0  0  0  0  0999 V2000
    1.2123    0.8912   -0.0000 C   0  0  0  0  0  0  0  0  0  0  0  0
    1.0617    1.6496   -0.6202 H   0  0  0  0  0  0  0  0  0  0  0  0
    2.0064    0.3641   -0.2707 H   0  0  0  0  0  0  0  0  0  0  0  0
    1.3896    1.2931    0.9976 H   0  0  0  0  0  0  0  0  0  0  0  0
    0.0000    0.0000    0.0000 C   0  0  0  0  0  0  0  0  0  0  0  0
   -0.0025   -0.5584   -0.8157 H   0  0  0  0  0  0  0  0  0  0  0  0
   -0.0029   -0.5587    0.8168 H   0  0  0  0  0  0  0  0  0  0  0  0
   -1.2123    0.8716    0.0000 N   0  0  0  0  0  4  0  0  0  0  0  0
   -0.9854    1.7518    0.4150 H   0  0  0  0  0  0  0  0  0  0  0  0
   -1.5167    1.0116   -0.9403 H   0  0  0  0  0  0  0  0  0  0  0  0
   -1.9367    0.4283    0.5252 H   0  0  0  0  0  0  0  0  0  0  0  0
   -0.7981    1.4614    4.2635 C   0  0  0  0  0  0  0  0  0  0  0  0
   -0.6257    2.4041    3.8706 H   0  0  0  0  0  0  0  0  0  0  0  0
    0.1165    0.9824    4.1781 H   0  0  0  0  0  0  0  0  0  0  0  0
   -1.0284    1.5713    5.3233 H   0  0  0  0  0  0  0  0  0  0  0  0
   -2.0581    0.5954    3.3042 S   0  0  0  0  0  0  0  0  0  0  0  0
   -1.9939   -1.0429    4.0275 C   0  0  0  0  0  0  0  0  0  0  0  0
   -1.0501   -1.3747    4.0236 H   0  0  0  0  0  0  0  0  0  0  0  0
   -2.3288   -1.0063    4.9704 H   0  0  0  0  0  0  0  0  0  0  0  0
   -2.5670   -1.6670    3.4954 H   0  0  0  0  0  0  0  0  0  0  0  0
  1  5  1  0
  5  8  1  0
  1  2  1  0
  1  3  1  0
  1  4  1  0
  5  6  1  0
  5  7  1  0
  8  9  1  0
  8 10  1  0
  8 11  1  0
 12 16  1  0
 16 17  1  0
 12 13  1  0
 12 14  1  0
 12 15  1  0
 17 18  1  0
 17 19  1  0
 17 20  1  0
M  CHG  1   8   1
M  END
>  <PDB_ID>  (1186) 
pdb3ors

>  <RESIDUE_NAME>  (1186) 
LYS   MET

>  <FRAG_NAME>  (1186) 
ETAM   MSM

>  <FRAG_ATOM_NUM>  (1186) 
fragi: 11  fragj: 9

>  <atom.prop.CHAIN_ID>  (1186) 
A A A A A A A A A A A Z Z Z Z Z Z Z Z Z

>  <atom.prop.IS_HEAVY_ATOM>  (1186) 
1 0 0 0 1 0 0 1 0 0 0 1 0 0 0 1 1 0 0 0

>  <DIFUSE_FUNC_ATOM>  (1186) 
n/a

>  <FINAL_SINGLE_POINT_ENERGY>  (1186) 
0

>  <NONCOV_INTER_ENERGY_QM>  (1186) 
0

>  <FF_Energy>  (1186) 
-5.41

>  <QM_Energy>  (1186) 
-13.44

>  <source>  (1186) 
ETAM_MSM

>  <Index>  (1186) 
7448

$$$$
ETAM-pdb4mpq-A-LYS-164:MSM-pdb4mpq-A-MET-102
     RDKit          3D

 20 18  0  0  0  0  0  0  0  0999 V2000
    1.2529    0.8715   -0.0000 C   0  0  0  0  0  0  0  0  0  0  0  0
    1.2465    1.4308    0.8230 H   0  0  0  0  0  0  0  0  0  0  0  0
    1.2338    1.4497   -0.8095 H   0  0  0  0  0  0  0  0  0  0  0  0
    2.1620    0.2702   -0.0136 H   0  0  0  0  0  0  0  0  0  0  0  0
    0.0000    0.0000    0.0000 C   0  0  0  0  0  0  0  0  0  0  0  0
    0.0150   -0.5869   -0.8163 H   0  0  0  0  0  0  0  0  0  0  0  0
    0.0148   -0.5863    0.8168 H   0  0  0  0  0  0  0  0  0  0  0  0
   -1.2529    0.8064    0.0000 N   0  0  0  0  0  4  0  0  0  0  0  0
   -1.4313    1.1411    0.9245 H   0  0  0  0  0  0  0  0  0  0  0  0
   -1.1477    1.5812   -0.6222 H   0  0  0  0  0  0  0  0  0  0  0  0
   -2.0145    0.2342   -0.3023 H   0  0  0  0  0  0  0  0  0  0  0  0
   -0.4244    5.3146   -0.9133 C   0  0  0  0  0  0  0  0  0  0  0  0
   -0.4613    5.5055   -1.9275 H   0  0  0  0  0  0  0  0  0  0  0  0
    0.5428    4.9945   -0.7457 H   0  0  0  0  0  0  0  0  0  0  0  0
   -0.5526    6.2649   -0.3950 H   0  0  0  0  0  0  0  0  0  0  0  0
   -1.6128    4.0565   -0.4469 S   0  0  0  0  0  0  0  0  0  0  0  0
   -3.2310    4.7319   -0.8978 C   0  0  0  0  0  0  0  0  0  0  0  0
   -3.1056    5.4523   -1.5763 H   0  0  0  0  0  0  0  0  0  0  0  0
   -3.7951    4.0015   -1.2783 H   0  0  0  0  0  0  0  0  0  0  0  0
   -3.6666    5.1063   -0.0826 H   0  0  0  0  0  0  0  0  0  0  0  0
  1  5  1  0
  5  8  1  0
  1  2  1  0
  1  3  1  0
  1  4  1  0
  5  6  1  0
  5  7  1  0
  8  9  1  0
  8 10  1  0
  8 11  1  0
 12 16  1  0
 16 17  1  0
 12 13  1  0
 12 14  1  0
 12 15  1  0
 17 18  1  0
 17 19  1  0
 17 20  1  0
M  CHG  1   8   1
M  END
>  <PDB_ID>  (1187) 
pdb4mpq

>  <RESIDUE_NAME>  (1187) 
LYS   MET

>  <FRAG_NAME>  (1187) 
ETAM   MSM

>  <FRAG_ATOM_NUM>  (1187) 
fragi: 11  fragj: 9

>  <atom.prop.CHAIN_ID>  (1187) 
A A A A A A A A A A A Z Z Z Z Z Z Z Z Z

>  <atom.prop.IS_HEAVY_ATOM>  (1187) 
1 0 0 0 1 0 0 1 0 0 0 1 0 0 0 1 1 0 0 0

>  <DIFUSE_FUNC_ATOM>  (1187) 
n/a

>  <FINAL_SINGLE_POINT_ENERGY>  (1187) 
0

>  <NONCOV_INTER_ENERGY_QM>  (1187) 
0

>  <FF_Energy>  (1187) 
-5.73

>  <QM_Energy>  (1187) 
-15.3

>  <source>  (1187) 
ETAM_MSM

>  <Index>  (1187) 
7453

$$$$
ETAM-pdb3ovp-A-LYS-159:MSM-pdb3ovp-A-MET-156
     RDKit          3D

 20 18  0  0  0  0  0  0  0  0999 V2000
    1.2449    0.8700   -0.0000 C   0  0  0  0  0  0  0  0  0  0  0  0
    1.2609    1.4117    0.8370 H   0  0  0  0  0  0  0  0  0  0  0  0
    1.2192    1.4719   -0.7948 H   0  0  0  0  0  0  0  0  0  0  0  0
    2.1643    0.2861   -0.0443 H   0  0  0  0  0  0  0  0  0  0  0  0
    0.0000    0.0000    0.0000 C   0  0  0  0  0  0  0  0  0  0  0  0
   -0.0114   -0.5654   -0.8163 H   0  0  0  0  0  0  0  0  0  0  0  0
   -0.0115   -0.5658    0.8164 H   0  0  0  0  0  0  0  0  0  0  0  0
   -1.2449    0.8707    0.0000 N   0  0  0  0  0  4  0  0  0  0  0  0
   -0.9963    1.7774    0.3242 H   0  0  0  0  0  0  0  0  0  0  0  0
   -1.5969    0.9196   -0.9293 H   0  0  0  0  0  0  0  0  0  0  0  0
   -1.9182    0.4592    0.6044 H   0  0  0  0  0  0  0  0  0  0  0  0
    0.0767    0.5977    4.9478 C   0  0  0  0  0  0  0  0  0  0  0  0
   -0.1196   -0.1329    5.6406 H   0  0  0  0  0  0  0  0  0  0  0  0
   -0.3109    1.4611    5.3436 H   0  0  0  0  0  0  0  0  0  0  0  0
    1.1583    0.7135    4.8781 H   0  0  0  0  0  0  0  0  0  0  0  0
   -0.6929    0.2107    3.3653 S   0  0  0  0  0  0  0  0  0  0  0  0
   -0.9847   -1.5472    3.5045 C   0  0  0  0  0  0  0  0  0  0  0  0
   -0.8032   -1.9906    2.6243 H   0  0  0  0  0  0  0  0  0  0  0  0
   -0.3793   -1.9358    4.2008 H   0  0  0  0  0  0  0  0  0  0  0  0
   -1.9370   -1.7116    3.7669 H   0  0  0  0  0  0  0  0  0  0  0  0
  1  5  1  0
  5  8  1  0
  1  2  1  0
  1  3  1  0
  1  4  1  0
  5  6  1  0
  5  7  1  0
  8  9  1  0
  8 10  1  0
  8 11  1  0
 12 16  1  0
 16 17  1  0
 12 13  1  0
 12 14  1  0
 12 15  1  0
 17 18  1  0
 17 19  1  0
 17 20  1  0
M  CHG  1   8   1
M  END
>  <PDB_ID>  (1188) 
pdb3ovp

>  <RESIDUE_NAME>  (1188) 
LYS   MET

>  <FRAG_NAME>  (1188) 
ETAM   MSM

>  <FRAG_ATOM_NUM>  (1188) 
fragi: 11  fragj: 9

>  <atom.prop.CHAIN_ID>  (1188) 
A A A A A A A A A A A Z Z Z Z Z Z Z Z Z

>  <atom.prop.IS_HEAVY_ATOM>  (1188) 
1 0 0 0 1 0 0 1 0 0 0 1 0 0 0 1 1 0 0 0

>  <DIFUSE_FUNC_ATOM>  (1188) 
n/a

>  <FINAL_SINGLE_POINT_ENERGY>  (1188) 
0

>  <NONCOV_INTER_ENERGY_QM>  (1188) 
0

>  <FF_Energy>  (1188) 
-4.85

>  <QM_Energy>  (1188) 
-11.77

>  <source>  (1188) 
ETAM_MSM

>  <Index>  (1188) 
7456

$$$$
ETAM-pdb3oz6-A-LYS-149:MSM-pdb3oz6-A-MET-93
     RDKit          3D

 20 18  0  0  0  0  0  0  0  0999 V2000
    1.2128    0.8794   -0.0000 C   0  0  0  0  0  0  0  0  0  0  0  0
    0.9733    1.7578    0.4106 H   0  0  0  0  0  0  0  0  0  0  0  0
    1.5098    1.0178   -0.9431 H   0  0  0  0  0  0  0  0  0  0  0  0
    2.0256    0.4285    0.5694 H   0  0  0  0  0  0  0  0  0  0  0  0
    0.0000    0.0000    0.0000 C   0  0  0  0  0  0  0  0  0  0  0  0
    0.0056   -0.5730   -0.8166 H   0  0  0  0  0  0  0  0  0  0  0  0
    0.0053   -0.5735    0.8162 H   0  0  0  0  0  0  0  0  0  0  0  0
   -1.2128    0.8396   -0.0000 N   0  0  0  0  0  4  0  0  0  0  0  0
   -1.3617    1.2194   -0.9152 H   0  0  0  0  0  0  0  0  0  0  0  0
   -2.0069    0.2868    0.2613 H   0  0  0  0  0  0  0  0  0  0  0  0
   -1.1038    1.5908    0.6547 H   0  0  0  0  0  0  0  0  0  0  0  0
    1.1821    4.8542    1.3645 C   0  0  0  0  0  0  0  0  0  0  0  0
    0.9077    4.8526    0.3696 H   0  0  0  0  0  0  0  0  0  0  0  0
    2.1232    4.4307    1.3751 H   0  0  0  0  0  0  0  0  0  0  0  0
    1.2674    5.8893    1.6951 H   0  0  0  0  0  0  0  0  0  0  0  0
    0.0277    3.8560    2.3410 S   0  0  0  0  0  0  0  0  0  0  0  0
    1.1129    3.1396    3.4904 C   0  0  0  0  0  0  0  0  0  0  0  0
    0.9553    3.5080    4.4186 H   0  0  0  0  0  0  0  0  0  0  0  0
    0.9892    2.1374    3.5312 H   0  0  0  0  0  0  0  0  0  0  0  0
    2.0762    3.3230    3.2439 H   0  0  0  0  0  0  0  0  0  0  0  0
  1  5  1  0
  5  8  1  0
  1  2  1  0
  1  3  1  0
  1  4  1  0
  5  6  1  0
  5  7  1  0
  8  9  1  0
  8 10  1  0
  8 11  1  0
 12 16  1  0
 16 17  1  0
 12 13  1  0
 12 14  1  0
 12 15  1  0
 17 18  1  0
 17 19  1  0
 17 20  1  0
M  CHG  1   8   1
M  END
>  <PDB_ID>  (1189) 
pdb3oz6

>  <RESIDUE_NAME>  (1189) 
LYS   MET

>  <FRAG_NAME>  (1189) 
ETAM   MSM

>  <FRAG_ATOM_NUM>  (1189) 
fragi: 11  fragj: 9

>  <atom.prop.CHAIN_ID>  (1189) 
A A A A A A A A A A A Z Z Z Z Z Z Z Z Z

>  <atom.prop.IS_HEAVY_ATOM>  (1189) 
1 0 0 0 1 0 0 1 0 0 0 1 0 0 0 1 1 0 0 0

>  <DIFUSE_FUNC_ATOM>  (1189) 
n/a

>  <FINAL_SINGLE_POINT_ENERGY>  (1189) 
0

>  <NONCOV_INTER_ENERGY_QM>  (1189) 
0

>  <FF_Energy>  (1189) 
-4.59

>  <QM_Energy>  (1189) 
-11.64

>  <source>  (1189) 
ETAM_MSM

>  <Index>  (1189) 
7461

$$$$
ETAM-pdb3ozi-B-LYS-105:MSM-pdb3ozi-B-MET-109
     RDKit          3D

 20 18  0  0  0  0  0  0  0  0999 V2000
    1.2245    0.9037   -0.0000 C   0  0  0  0  0  0  0  0  0  0  0  0
    1.1496    1.6289    0.8239 H   0  0  0  0  0  0  0  0  0  0  0  0
    1.2584    1.4816   -0.9348 H   0  0  0  0  0  0  0  0  0  0  0  0
    2.1402    0.3219    0.1054 H   0  0  0  0  0  0  0  0  0  0  0  0
    0.0000    0.0000    0.0000 C   0  0  0  0  0  0  0  0  0  0  0  0
    0.0107   -0.6538   -0.8845 H   0  0  0  0  0  0  0  0  0  0  0  0
    0.0101   -0.6544    0.8841 H   0  0  0  0  0  0  0  0  0  0  0  0
   -1.2245    0.8438    0.0000 N   0  0  0  0  0  4  0  0  0  0  0  0
   -1.9991    0.3088    0.3379 H   0  0  0  0  0  0  0  0  0  0  0  0
   -1.0832    1.6367    0.5930 H   0  0  0  0  0  0  0  0  0  0  0  0
   -1.4158    1.1542   -0.9308 H   0  0  0  0  0  0  0  0  0  0  0  0
    0.1735   -0.1088   -4.1631 C   0  0  0  0  0  0  0  0  0  0  0  0
   -0.4059   -0.7777   -4.8168 H   0  0  0  0  0  0  0  0  0  0  0  0
    0.5773   -0.7274   -3.3478 H   0  0  0  0  0  0  0  0  0  0  0  0
    0.9791    0.3712   -4.7188 H   0  0  0  0  0  0  0  0  0  0  0  0
   -0.8746    1.2086   -3.5068 S   0  0  0  0  0  0  0  0  0  0  0  0
   -1.0662    2.2369   -4.9644 C   0  0  0  0  0  0  0  0  0  0  0  0
   -1.6964    3.1052   -4.7211 H   0  0  0  0  0  0  0  0  0  0  0  0
   -0.0777    2.5846   -5.3008 H   0  0  0  0  0  0  0  0  0  0  0  0
   -1.5420    1.6526   -5.7662 H   0  0  0  0  0  0  0  0  0  0  0  0
  1  5  1  0
  5  8  1  0
  1  2  1  0
  1  3  1  0
  1  4  1  0
  5  6  1  0
  5  7  1  0
  8  9  1  0
  8 10  1  0
  8 11  1  0
 12 16  1  0
 16 17  1  0
 12 13  1  0
 12 14  1  0
 12 15  1  0
 17 18  1  0
 17 19  1  0
 17 20  1  0
M  CHG  1   8   1
M  END
>  <PDB_ID>  (1190) 
pdb3ozi

>  <RESIDUE_NAME>  (1190) 
LYS   MET

>  <FRAG_NAME>  (1190) 
ETAM   MSM

>  <FRAG_ATOM_NUM>  (1190) 
fragi: 11  fragj: 9

>  <atom.prop.CHAIN_ID>  (1190) 
A A A A A A A A A A A Z Z Z Z Z Z Z Z Z

>  <atom.prop.IS_HEAVY_ATOM>  (1190) 
1 0 0 0 1 0 0 1 0 0 0 1 0 0 0 1 1 0 0 0

>  <DIFUSE_FUNC_ATOM>  (1190) 
n/a

>  <FINAL_SINGLE_POINT_ENERGY>  (1190) 
0

>  <NONCOV_INTER_ENERGY_QM>  (1190) 
0

>  <FF_Energy>  (1190) 
-6.14

>  <QM_Energy>  (1190) 
-13.65

>  <source>  (1190) 
ETAM_MSM

>  <Index>  (1190) 
7463

$$$$
ETAM-pdb3ozi-A-LYS-105:MSM-pdb3ozi-A-MET-109
     RDKit          3D

 20 18  0  0  0  0  0  0  0  0999 V2000
    1.2342    0.8728   -0.0000 C   0  0  0  0  0  0  0  0  0  0  0  0
    1.2623    1.4808    0.9160 H   0  0  0  0  0  0  0  0  0  0  0  0
    1.1985    1.5713   -0.8487 H   0  0  0  0  0  0  0  0  0  0  0  0
    2.1318    0.2578   -0.0637 H   0  0  0  0  0  0  0  0  0  0  0  0
    0.0000    0.0000    0.0000 C   0  0  0  0  0  0  0  0  0  0  0  0
    0.0092   -0.6542   -0.8840 H   0  0  0  0  0  0  0  0  0  0  0  0
    0.0094   -0.6541    0.8842 H   0  0  0  0  0  0  0  0  0  0  0  0
   -1.2342    0.8219   -0.0000 N   0  0  0  0  0  4  0  0  0  0  0  0
   -2.0345    0.2229   -0.0000 H   0  0  0  0  0  0  0  0  0  0  0  0
   -1.2506    1.3992    0.8162 H   0  0  0  0  0  0  0  0  0  0  0  0
   -1.2508    1.3995   -0.8162 H   0  0  0  0  0  0  0  0  0  0  0  0
   -0.1081   -2.3654   -3.0848 C   0  0  0  0  0  0  0  0  0  0  0  0
   -0.7533   -3.2540   -3.0131 H   0  0  0  0  0  0  0  0  0  0  0  0
    0.5403   -2.3662   -2.1957 H   0  0  0  0  0  0  0  0  0  0  0  0
    0.4911   -2.4010   -3.9947 H   0  0  0  0  0  0  0  0  0  0  0  0
   -1.1071   -0.8584   -3.1408 S   0  0  0  0  0  0  0  0  0  0  0  0
    0.1625    0.3703   -3.3771 C   0  0  0  0  0  0  0  0  0  0  0  0
   -0.2981    1.3677   -3.4328 H   0  0  0  0  0  0  0  0  0  0  0  0
    0.8665    0.3386   -2.5322 H   0  0  0  0  0  0  0  0  0  0  0  0
    0.7038    0.1639   -4.3124 H   0  0  0  0  0  0  0  0  0  0  0  0
  1  5  1  0
  5  8  1  0
  1  2  1  0
  1  3  1  0
  1  4  1  0
  5  6  1  0
  5  7  1  0
  8  9  1  0
  8 10  1  0
  8 11  1  0
 12 16  1  0
 16 17  1  0
 12 13  1  0
 12 14  1  0
 12 15  1  0
 17 18  1  0
 17 19  1  0
 17 20  1  0
M  CHG  1   8   1
M  END
>  <PDB_ID>  (1191) 
pdb3ozi

>  <RESIDUE_NAME>  (1191) 
LYS   MET

>  <FRAG_NAME>  (1191) 
ETAM   MSM

>  <FRAG_ATOM_NUM>  (1191) 
fragi: 11  fragj: 9

>  <atom.prop.CHAIN_ID>  (1191) 
A A A A A A A A A A A Z Z Z Z Z Z Z Z Z

>  <atom.prop.IS_HEAVY_ATOM>  (1191) 
1 0 0 0 1 0 0 1 0 0 0 1 0 0 0 1 1 0 0 0

>  <DIFUSE_FUNC_ATOM>  (1191) 
n/a

>  <FINAL_SINGLE_POINT_ENERGY>  (1191) 
0

>  <NONCOV_INTER_ENERGY_QM>  (1191) 
0

>  <FF_Energy>  (1191) 
0.43

>  <QM_Energy>  (1191) 
-8.05

>  <source>  (1191) 
ETAM_MSM

>  <Index>  (1191) 
7465

$$$$
ETAM-pdb3ovp-B-LYS-159:MSM-pdb3ovp-B-MET-156
     RDKit          3D

 20 18  0  0  0  0  0  0  0  0999 V2000
    1.2339    0.8807   -0.0000 C   0  0  0  0  0  0  0  0  0  0  0  0
    1.2247    1.4507    0.8205 H   0  0  0  0  0  0  0  0  0  0  0  0
    1.2153    1.4619   -0.8126 H   0  0  0  0  0  0  0  0  0  0  0  0
    2.1620    0.3091   -0.0081 H   0  0  0  0  0  0  0  0  0  0  0  0
    0.0000    0.0000    0.0000 C   0  0  0  0  0  0  0  0  0  0  0  0
   -0.0066   -0.5621   -0.8159 H   0  0  0  0  0  0  0  0  0  0  0  0
   -0.0071   -0.5620    0.8166 H   0  0  0  0  0  0  0  0  0  0  0  0
   -1.2339    0.8704    0.0000 N   0  0  0  0  0  4  0  0  0  0  0  0
   -1.0435    1.6967   -0.5218 H   0  0  0  0  0  0  0  0  0  0  0  0
   -1.9833    0.3649   -0.4187 H   0  0  0  0  0  0  0  0  0  0  0  0
   -1.4617    1.1045    0.9416 H   0  0  0  0  0  0  0  0  0  0  0  0
    0.1885    1.0968    4.9509 C   0  0  0  0  0  0  0  0  0  0  0  0
    0.0101    0.4561    5.7291 H   0  0  0  0  0  0  0  0  0  0  0  0
   -0.2172    1.9939    5.2293 H   0  0  0  0  0  0  0  0  0  0  0  0
    1.2653    1.2162    4.8315 H   0  0  0  0  0  0  0  0  0  0  0  0
   -0.6028    0.4891    3.4387 S   0  0  0  0  0  0  0  0  0  0  0  0
   -0.9145   -1.2213    3.8612 C   0  0  0  0  0  0  0  0  0  0  0  0
   -1.0802   -1.3004    4.8457 H   0  0  0  0  0  0  0  0  0  0  0  0
   -1.7187   -1.5502    3.3637 H   0  0  0  0  0  0  0  0  0  0  0  0
   -0.1206   -1.7792    3.6133 H   0  0  0  0  0  0  0  0  0  0  0  0
  1  5  1  0
  5  8  1  0
  1  2  1  0
  1  3  1  0
  1  4  1  0
  5  6  1  0
  5  7  1  0
  8  9  1  0
  8 10  1  0
  8 11  1  0
 12 16  1  0
 16 17  1  0
 12 13  1  0
 12 14  1  0
 12 15  1  0
 17 18  1  0
 17 19  1  0
 17 20  1  0
M  CHG  1   8   1
M  END
>  <PDB_ID>  (1192) 
pdb3ovp

>  <RESIDUE_NAME>  (1192) 
LYS   MET

>  <FRAG_NAME>  (1192) 
ETAM   MSM

>  <FRAG_ATOM_NUM>  (1192) 
fragi: 11  fragj: 9

>  <atom.prop.CHAIN_ID>  (1192) 
A A A A A A A A A A A Z Z Z Z Z Z Z Z Z

>  <atom.prop.IS_HEAVY_ATOM>  (1192) 
1 0 0 0 1 0 0 1 0 0 0 1 0 0 0 1 1 0 0 0

>  <DIFUSE_FUNC_ATOM>  (1192) 
n/a

>  <FINAL_SINGLE_POINT_ENERGY>  (1192) 
0

>  <NONCOV_INTER_ENERGY_QM>  (1192) 
0

>  <FF_Energy>  (1192) 
-5.64

>  <QM_Energy>  (1192) 
-13.51

>  <source>  (1192) 
ETAM_MSM

>  <Index>  (1192) 
7471

$$$$
ETAM-pdb3p0k-A-LYS-166:MSM-pdb3p0k-A-MET-163
     RDKit          3D

 20 18  0  0  0  0  0  0  0  0999 V2000
    1.2483    0.8693    0.0000 C   0  0  0  0  0  0  0  0  0  0  0  0
    1.2473    1.4275    0.8205 H   0  0  0  0  0  0  0  0  0  0  0  0
    1.2390    1.4392   -0.8126 H   0  0  0  0  0  0  0  0  0  0  0  0
    2.1517    0.2594   -0.0077 H   0  0  0  0  0  0  0  0  0  0  0  0
    0.0000    0.0000    0.0000 C   0  0  0  0  0  0  0  0  0  0  0  0
    0.0090   -0.5830   -0.8159 H   0  0  0  0  0  0  0  0  0  0  0  0
    0.0087   -0.5835    0.8163 H   0  0  0  0  0  0  0  0  0  0  0  0
   -1.2483    0.8182    0.0000 N   0  0  0  0  0  4  0  0  0  0  0  0
   -1.0167    1.7726    0.1850 H   0  0  0  0  0  0  0  0  0  0  0  0
   -1.6892    0.7463   -0.8930 H   0  0  0  0  0  0  0  0  0  0  0  0
   -1.8647    0.4776    0.7081 H   0  0  0  0  0  0  0  0  0  0  0  0
   -1.6375   -1.0397   -4.5155 C   0  0  0  0  0  0  0  0  0  0  0  0
   -2.3483   -1.1711   -5.2450 H   0  0  0  0  0  0  0  0  0  0  0  0
   -1.2046   -1.9625   -4.3895 H   0  0  0  0  0  0  0  0  0  0  0  0
   -0.8807   -0.3520   -4.8928 H   0  0  0  0  0  0  0  0  0  0  0  0
   -2.3917   -0.4735   -2.9825 S   0  0  0  0  0  0  0  0  0  0  0  0
   -3.7512    0.5056   -3.6142 C   0  0  0  0  0  0  0  0  0  0  0  0
   -4.0339    0.1521   -4.5072 H   0  0  0  0  0  0  0  0  0  0  0  0
   -4.5236    0.4574   -2.9789 H   0  0  0  0  0  0  0  0  0  0  0  0
   -3.4619    1.4587   -3.7120 H   0  0  0  0  0  0  0  0  0  0  0  0
  1  5  1  0
  5  8  1  0
  1  2  1  0
  1  3  1  0
  1  4  1  0
  5  6  1  0
  5  7  1  0
  8  9  1  0
  8 10  1  0
  8 11  1  0
 12 16  1  0
 16 17  1  0
 12 13  1  0
 12 14  1  0
 12 15  1  0
 17 18  1  0
 17 19  1  0
 17 20  1  0
M  CHG  1   8   1
M  END
>  <PDB_ID>  (1193) 
pdb3p0k

>  <RESIDUE_NAME>  (1193) 
LYS   MET

>  <FRAG_NAME>  (1193) 
ETAM   MSM

>  <FRAG_ATOM_NUM>  (1193) 
fragi: 11  fragj: 9

>  <atom.prop.CHAIN_ID>  (1193) 
A A A A A A A A A A A Z Z Z Z Z Z Z Z Z

>  <atom.prop.IS_HEAVY_ATOM>  (1193) 
1 0 0 0 1 0 0 1 0 0 0 1 0 0 0 1 1 0 0 0

>  <DIFUSE_FUNC_ATOM>  (1193) 
n/a

>  <FINAL_SINGLE_POINT_ENERGY>  (1193) 
0

>  <NONCOV_INTER_ENERGY_QM>  (1193) 
0

>  <FF_Energy>  (1193) 
-5.84

>  <QM_Energy>  (1193) 
-15.18

>  <source>  (1193) 
ETAM_MSM

>  <Index>  (1193) 
7473

$$$$
ETAM-pdb3p1n-A-LYS-9:MSM-pdb3p1n-A-MET-1
     RDKit          3D

 20 18  0  0  0  0  0  0  0  0999 V2000
    1.2302    0.9042   -0.0000 C   0  0  0  0  0  0  0  0  0  0  0  0
    1.2423    1.4312    0.8247 H   0  0  0  0  0  0  0  0  0  0  0  0
    1.2243    1.4557   -0.8085 H   0  0  0  0  0  0  0  0  0  0  0  0
    2.1217    0.2774   -0.0189 H   0  0  0  0  0  0  0  0  0  0  0  0
    0.0000    0.0000    0.0000 C   0  0  0  0  0  0  0  0  0  0  0  0
    0.0176   -0.5668   -0.8161 H   0  0  0  0  0  0  0  0  0  0  0  0
    0.0178   -0.5667    0.8167 H   0  0  0  0  0  0  0  0  0  0  0  0
   -1.2302    0.8331    0.0000 N   0  0  0  0  0  4  0  0  0  0  0  0
   -2.0248    0.2529    0.1803 H   0  0  0  0  0  0  0  0  0  0  0  0
   -1.1584    1.5321    0.7113 H   0  0  0  0  0  0  0  0  0  0  0  0
   -1.3337    1.2734   -0.8914 H   0  0  0  0  0  0  0  0  0  0  0  0
   -1.4303    2.6534    4.1665 C   0  0  0  0  0  0  0  0  0  0  0  0
   -1.1370    1.9897    4.9065 H   0  0  0  0  0  0  0  0  0  0  0  0
   -2.3579    2.2989    3.8672 H   0  0  0  0  0  0  0  0  0  0  0  0
   -1.5892    3.6213    4.6419 H   0  0  0  0  0  0  0  0  0  0  0  0
   -0.2593    2.6413    2.7870 S   0  0  0  0  0  0  0  0  0  0  0  0
   -0.8890    3.9688    1.8123 C   0  0  0  0  0  0  0  0  0  0  0  0
   -0.7850    3.7637    0.8325 H   0  0  0  0  0  0  0  0  0  0  0  0
   -1.8651    4.1146    2.0075 H   0  0  0  0  0  0  0  0  0  0  0  0
   -0.3911    4.8191    2.0159 H   0  0  0  0  0  0  0  0  0  0  0  0
  1  5  1  0
  5  8  1  0
  1  2  1  0
  1  3  1  0
  1  4  1  0
  5  6  1  0
  5  7  1  0
  8  9  1  0
  8 10  1  0
  8 11  1  0
 12 16  1  0
 16 17  1  0
 12 13  1  0
 12 14  1  0
 12 15  1  0
 17 18  1  0
 17 19  1  0
 17 20  1  0
M  CHG  1   8   1
M  END
>  <PDB_ID>  (1194) 
pdb3p1n

>  <RESIDUE_NAME>  (1194) 
LYS   MET

>  <FRAG_NAME>  (1194) 
ETAM   MSM

>  <FRAG_ATOM_NUM>  (1194) 
fragi: 11  fragj: 9

>  <atom.prop.CHAIN_ID>  (1194) 
A A A A A A A A A A A Z Z Z Z Z Z Z Z Z

>  <atom.prop.IS_HEAVY_ATOM>  (1194) 
1 0 0 0 1 0 0 1 0 0 0 1 0 0 0 1 1 0 0 0

>  <DIFUSE_FUNC_ATOM>  (1194) 
n/a

>  <FINAL_SINGLE_POINT_ENERGY>  (1194) 
0

>  <NONCOV_INTER_ENERGY_QM>  (1194) 
0

>  <FF_Energy>  (1194) 
-4.45

>  <QM_Energy>  (1194) 
-13.18

>  <source>  (1194) 
ETAM_MSM

>  <Index>  (1194) 
7474

$$$$
ETAM-pdb3p5p-A-LYS-821:MSM-pdb3p5p-A-MET-818
     RDKit          3D

 20 18  0  0  0  0  0  0  0  0999 V2000
    1.2423    0.8695    0.0000 C   0  0  0  0  0  0  0  0  0  0  0  0
    1.1898    1.5044    0.7682 H   0  0  0  0  0  0  0  0  0  0  0  0
    1.2780    1.3777   -0.8578 H   0  0  0  0  0  0  0  0  0  0  0  0
    2.1575    0.2853    0.0958 H   0  0  0  0  0  0  0  0  0  0  0  0
    0.0000    0.0000    0.0000 C   0  0  0  0  0  0  0  0  0  0  0  0
    0.0019   -0.5767   -0.8161 H   0  0  0  0  0  0  0  0  0  0  0  0
    0.0015   -0.5773    0.8160 H   0  0  0  0  0  0  0  0  0  0  0  0
   -1.2423    0.8378    0.0000 N   0  0  0  0  0  4  0  0  0  0  0  0
   -1.8587    0.5078   -0.7119 H   0  0  0  0  0  0  0  0  0  0  0  0
   -1.6847    0.7656    0.8917 H   0  0  0  0  0  0  0  0  0  0  0  0
   -0.9958    1.7878   -0.1796 H   0  0  0  0  0  0  0  0  0  0  0  0
    0.7857    3.1108   -4.2060 C   0  0  0  0  0  0  0  0  0  0  0  0
    0.9910    3.8984   -3.5754 H   0  0  0  0  0  0  0  0  0  0  0  0
    0.1995    3.5114   -4.9503 H   0  0  0  0  0  0  0  0  0  0  0  0
    1.7233    2.7781   -4.6514 H   0  0  0  0  0  0  0  0  0  0  0  0
   -0.1168    1.8040   -3.3195 S   0  0  0  0  0  0  0  0  0  0  0  0
   -0.2200    0.5548   -4.6063 C   0  0  0  0  0  0  0  0  0  0  0  0
    0.2473    0.8829   -5.4272 H   0  0  0  0  0  0  0  0  0  0  0  0
    0.2160   -0.2878   -4.2886 H   0  0  0  0  0  0  0  0  0  0  0  0
   -1.1808    0.3743   -4.8190 H   0  0  0  0  0  0  0  0  0  0  0  0
  1  5  1  0
  5  8  1  0
  1  2  1  0
  1  3  1  0
  1  4  1  0
  5  6  1  0
  5  7  1  0
  8  9  1  0
  8 10  1  0
  8 11  1  0
 12 16  1  0
 16 17  1  0
 12 13  1  0
 12 14  1  0
 12 15  1  0
 17 18  1  0
 17 19  1  0
 17 20  1  0
M  CHG  1   8   1
M  END
>  <PDB_ID>  (1195) 
pdb3p5p

>  <RESIDUE_NAME>  (1195) 
LYS   MET

>  <FRAG_NAME>  (1195) 
ETAM   MSM

>  <FRAG_ATOM_NUM>  (1195) 
fragi: 11  fragj: 9

>  <atom.prop.CHAIN_ID>  (1195) 
A A A A A A A A A A A Z Z Z Z Z Z Z Z Z

>  <atom.prop.IS_HEAVY_ATOM>  (1195) 
1 0 0 0 1 0 0 1 0 0 0 1 0 0 0 1 1 0 0 0

>  <DIFUSE_FUNC_ATOM>  (1195) 
n/a

>  <FINAL_SINGLE_POINT_ENERGY>  (1195) 
0

>  <NONCOV_INTER_ENERGY_QM>  (1195) 
0

>  <FF_Energy>  (1195) 
-5.45

>  <QM_Energy>  (1195) 
-11.63

>  <source>  (1195) 
ETAM_MSM

>  <Index>  (1195) 
7495

$$$$
ETAM-pdb4mz1-A-LYS-292:MSM-pdb4mz1-A-MET-355
     RDKit          3D

 20 18  0  0  0  0  0  0  0  0999 V2000
    1.2490    0.8675   -0.0000 C   0  0  0  0  0  0  0  0  0  0  0  0
    1.1946    1.5002   -0.7705 H   0  0  0  0  0  0  0  0  0  0  0  0
    2.0452    0.2753   -0.1052 H   0  0  0  0  0  0  0  0  0  0  0  0
    1.3521    1.4404    0.9215 H   0  0  0  0  0  0  0  0  0  0  0  0
    0.0000    0.0000    0.0000 C   0  0  0  0  0  0  0  0  0  0  0  0
    0.0080   -0.5834   -0.8162 H   0  0  0  0  0  0  0  0  0  0  0  0
    0.0080   -0.5837    0.8164 H   0  0  0  0  0  0  0  0  0  0  0  0
   -1.2490    0.8199    0.0000 N   0  0  0  0  0  4  0  0  0  0  0  0
   -1.0659    1.6971   -0.4405 H   0  0  0  0  0  0  0  0  0  0  0  0
   -1.9614    0.3324   -0.5020 H   0  0  0  0  0  0  0  0  0  0  0  0
   -1.5439    0.9710    0.9423 H   0  0  0  0  0  0  0  0  0  0  0  0
    0.7945    3.2764   -4.4368 C   0  0  0  0  0  0  0  0  0  0  0  0
    0.2241    4.1172   -4.5973 H   0  0  0  0  0  0  0  0  0  0  0  0
    1.0449    2.9406   -5.3762 H   0  0  0  0  0  0  0  0  0  0  0  0
    1.7127    3.5878   -3.9387 H   0  0  0  0  0  0  0  0  0  0  0  0
   -0.1572    2.0143   -3.5344 S   0  0  0  0  0  0  0  0  0  0  0  0
    0.8221    0.5551   -3.8953 C   0  0  0  0  0  0  0  0  0  0  0  0
    0.2869   -0.0761   -4.4574 H   0  0  0  0  0  0  0  0  0  0  0  0
    1.6501    0.8221   -4.3906 H   0  0  0  0  0  0  0  0  0  0  0  0
    1.0776    0.1034   -3.0392 H   0  0  0  0  0  0  0  0  0  0  0  0
  1  5  1  0
  5  8  1  0
  1  2  1  0
  1  3  1  0
  1  4  1  0
  5  6  1  0
  5  7  1  0
  8  9  1  0
  8 10  1  0
  8 11  1  0
 12 16  1  0
 16 17  1  0
 12 13  1  0
 12 14  1  0
 12 15  1  0
 17 18  1  0
 17 19  1  0
 17 20  1  0
M  CHG  1   8   1
M  END
>  <PDB_ID>  (1196) 
pdb4mz1

>  <RESIDUE_NAME>  (1196) 
LYS   MET

>  <FRAG_NAME>  (1196) 
ETAM   MSM

>  <FRAG_ATOM_NUM>  (1196) 
fragi: 11  fragj: 9

>  <atom.prop.CHAIN_ID>  (1196) 
A A A A A A A A A A A Z Z Z Z Z Z Z Z Z

>  <atom.prop.IS_HEAVY_ATOM>  (1196) 
1 0 0 0 1 0 0 1 0 0 0 1 0 0 0 1 1 0 0 0

>  <DIFUSE_FUNC_ATOM>  (1196) 
n/a

>  <FINAL_SINGLE_POINT_ENERGY>  (1196) 
0

>  <NONCOV_INTER_ENERGY_QM>  (1196) 
0

>  <FF_Energy>  (1196) 
-4.97

>  <QM_Energy>  (1196) 
-10.41

>  <source>  (1196) 
ETAM_MSM

>  <Index>  (1196) 
7498

$$$$
ETAM-pdb3p2n-B-LYS-198:MSM-pdb3p2n-B-MET-271
     RDKit          3D

 20 18  0  0  0  0  0  0  0  0999 V2000
    1.1703    1.0187    0.0000 C   0  0  0  0  0  0  0  0  0  0  0  0
    1.1408    1.5245    0.8405 H   0  0  0  0  0  0  0  0  0  0  0  0
    1.0793    1.5946   -0.7901 H   0  0  0  0  0  0  0  0  0  0  0  0
    2.1221    0.4908   -0.0577 H   0  0  0  0  0  0  0  0  0  0  0  0
    0.0000    0.0000    0.0000 C   0  0  0  0  0  0  0  0  0  0  0  0
    0.0155   -0.4874   -0.8160 H   0  0  0  0  0  0  0  0  0  0  0  0
    0.0146   -0.4876    0.8159 H   0  0  0  0  0  0  0  0  0  0  0  0
   -1.1703    0.9565    0.0000 N   0  0  0  0  0  4  0  0  0  0  0  0
   -1.7559    0.7450    0.7766 H   0  0  0  0  0  0  0  0  0  0  0  0
   -0.8236    1.8871    0.0741 H   0  0  0  0  0  0  0  0  0  0  0  0
   -1.6746    0.8453   -0.8514 H   0  0  0  0  0  0  0  0  0  0  0  0
   -1.6849   -2.6498   -3.3469 C   0  0  0  0  0  0  0  0  0  0  0  0
   -0.9424   -3.2422   -2.9774 H   0  0  0  0  0  0  0  0  0  0  0  0
   -1.2285   -1.9352   -3.9132 H   0  0  0  0  0  0  0  0  0  0  0  0
   -2.3403   -3.2478   -3.9800 H   0  0  0  0  0  0  0  0  0  0  0  0
   -2.6002   -1.8617   -1.9672 S   0  0  0  0  0  0  0  0  0  0  0  0
   -3.3336   -3.3481   -1.1877 C   0  0  0  0  0  0  0  0  0  0  0  0
   -2.9596   -3.4408   -0.2705 H   0  0  0  0  0  0  0  0  0  0  0  0
   -4.3203   -3.2301   -1.1495 H   0  0  0  0  0  0  0  0  0  0  0  0
   -3.0999   -4.1420   -1.7392 H   0  0  0  0  0  0  0  0  0  0  0  0
  1  5  1  0
  5  8  1  0
  1  2  1  0
  1  3  1  0
  1  4  1  0
  5  6  1  0
  5  7  1  0
  8  9  1  0
  8 10  1  0
  8 11  1  0
 12 16  1  0
 16 17  1  0
 12 13  1  0
 12 14  1  0
 12 15  1  0
 17 18  1  0
 17 19  1  0
 17 20  1  0
M  CHG  1   8   1
M  END
>  <PDB_ID>  (1197) 
pdb3p2n

>  <RESIDUE_NAME>  (1197) 
LYS   MET

>  <FRAG_NAME>  (1197) 
ETAM   MSM

>  <FRAG_ATOM_NUM>  (1197) 
fragi: 11  fragj: 9

>  <atom.prop.CHAIN_ID>  (1197) 
A A A A A A A A A A A Z Z Z Z Z Z Z Z Z

>  <atom.prop.IS_HEAVY_ATOM>  (1197) 
1 0 0 0 1 0 0 1 0 0 0 1 0 0 0 1 1 0 0 0

>  <DIFUSE_FUNC_ATOM>  (1197) 
n/a

>  <FINAL_SINGLE_POINT_ENERGY>  (1197) 
0

>  <NONCOV_INTER_ENERGY_QM>  (1197) 
0

>  <FF_Energy>  (1197) 
-5.11

>  <QM_Energy>  (1197) 
-11.67

>  <source>  (1197) 
ETAM_MSM

>  <Index>  (1197) 
7504

$$$$
ETAM-pdb4mz1-B-LYS-292:MSM-pdb4mz1-B-MET-355
     RDKit          3D

 20 18  0  0  0  0  0  0  0  0999 V2000
    1.2285    0.8855   -0.0000 C   0  0  0  0  0  0  0  0  0  0  0  0
    1.1404    1.5612   -0.7281 H   0  0  0  0  0  0  0  0  0  0  0  0
    2.0345    0.3196   -0.1550 H   0  0  0  0  0  0  0  0  0  0  0  0
    1.3553    1.4141    0.9448 H   0  0  0  0  0  0  0  0  0  0  0  0
    0.0000    0.0000    0.0000 C   0  0  0  0  0  0  0  0  0  0  0  0
    0.0109   -0.5731   -0.8166 H   0  0  0  0  0  0  0  0  0  0  0  0
    0.0103   -0.5733    0.8169 H   0  0  0  0  0  0  0  0  0  0  0  0
   -1.2285    0.8320    0.0000 N   0  0  0  0  0  4  0  0  0  0  0  0
   -1.8940    0.4446   -0.6383 H   0  0  0  0  0  0  0  0  0  0  0  0
   -1.6200    0.8489    0.9205 H   0  0  0  0  0  0  0  0  0  0  0  0
   -1.0001    1.7646   -0.2822 H   0  0  0  0  0  0  0  0  0  0  0  0
    1.3328    3.0796   -4.5117 C   0  0  0  0  0  0  0  0  0  0  0  0
    0.6024    3.8081   -4.4766 H   0  0  0  0  0  0  0  0  0  0  0  0
    1.5971    3.0266   -5.5085 H   0  0  0  0  0  0  0  0  0  0  0  0
    2.1948    3.4298   -3.9440 H   0  0  0  0  0  0  0  0  0  0  0  0
    0.6828    1.5012   -3.9443 S   0  0  0  0  0  0  0  0  0  0  0  0
   -0.5718    2.0300   -2.8815 C   0  0  0  0  0  0  0  0  0  0  0  0
   -0.4298    2.9904   -2.5936 H   0  0  0  0  0  0  0  0  0  0  0  0
   -1.4793    1.9751   -3.3274 H   0  0  0  0  0  0  0  0  0  0  0  0
   -0.6081    1.4623   -2.0438 H   0  0  0  0  0  0  0  0  0  0  0  0
  1  5  1  0
  5  8  1  0
  1  2  1  0
  1  3  1  0
  1  4  1  0
  5  6  1  0
  5  7  1  0
  8  9  1  0
  8 10  1  0
  8 11  1  0
 12 16  1  0
 16 17  1  0
 12 13  1  0
 12 14  1  0
 12 15  1  0
 17 18  1  0
 17 19  1  0
 17 20  1  0
M  CHG  1   8   1
M  END
>  <PDB_ID>  (1198) 
pdb4mz1

>  <RESIDUE_NAME>  (1198) 
LYS   MET

>  <FRAG_NAME>  (1198) 
ETAM   MSM

>  <FRAG_ATOM_NUM>  (1198) 
fragi: 11  fragj: 9

>  <atom.prop.CHAIN_ID>  (1198) 
A A A A A A A A A A A Z Z Z Z Z Z Z Z Z

>  <atom.prop.IS_HEAVY_ATOM>  (1198) 
1 0 0 0 1 0 0 1 0 0 0 1 0 0 0 1 1 0 0 0

>  <DIFUSE_FUNC_ATOM>  (1198) 
n/a

>  <FINAL_SINGLE_POINT_ENERGY>  (1198) 
0

>  <NONCOV_INTER_ENERGY_QM>  (1198) 
0

>  <FF_Energy>  (1198) 
5.41

>  <QM_Energy>  (1198) 
-0.51

>  <source>  (1198) 
ETAM_MSM

>  <Index>  (1198) 
7510

$$$$
ETAM-pdb3pac-A-LYS-15:MSM-pdb3pac-A-MET-67
     RDKit          3D

 20 18  0  0  0  0  0  0  0  0999 V2000
    1.2157    0.8339    0.0000 C   0  0  0  0  0  0  0  0  0  0  0  0
    1.1148    1.5679    0.6409 H   0  0  0  0  0  0  0  0  0  0  0  0
    1.4062    1.1432   -0.9091 H   0  0  0  0  0  0  0  0  0  0  0  0
    2.0221    0.1795    0.3311 H   0  0  0  0  0  0  0  0  0  0  0  0
    0.0000    0.0000    0.0000 C   0  0  0  0  0  0  0  0  0  0  0  0
   -0.0203   -0.5817   -0.8159 H   0  0  0  0  0  0  0  0  0  0  0  0
   -0.0203   -0.5827    0.8158 H   0  0  0  0  0  0  0  0  0  0  0  0
   -1.2157    0.8567    0.0000 N   0  0  0  0  0  4  0  0  0  0  0  0
   -1.4496    1.1013    0.9409 H   0  0  0  0  0  0  0  0  0  0  0  0
   -1.0368    1.6875   -0.5265 H   0  0  0  0  0  0  0  0  0  0  0  0
   -1.9757    0.3555   -0.4141 H   0  0  0  0  0  0  0  0  0  0  0  0
    3.1759    4.9069    0.0522 C   0  0  0  0  0  0  0  0  0  0  0  0
    3.8346    5.5529    0.4909 H   0  0  0  0  0  0  0  0  0  0  0  0
    2.6107    5.4680   -0.5871 H   0  0  0  0  0  0  0  0  0  0  0  0
    3.7407    4.1796   -0.5309 H   0  0  0  0  0  0  0  0  0  0  0  0
    2.1503    4.1036    1.2796 S   0  0  0  0  0  0  0  0  0  0  0  0
    0.7345    3.6569    0.2943 C   0  0  0  0  0  0  0  0  0  0  0  0
    0.2641    4.4844   -0.0210 H   0  0  0  0  0  0  0  0  0  0  0  0
    1.0287    3.1228   -0.5022 H   0  0  0  0  0  0  0  0  0  0  0  0
    0.0985    3.1067    0.8411 H   0  0  0  0  0  0  0  0  0  0  0  0
  1  5  1  0
  5  8  1  0
  1  2  1  0
  1  3  1  0
  1  4  1  0
  5  6  1  0
  5  7  1  0
  8  9  1  0
  8 10  1  0
  8 11  1  0
 12 16  1  0
 16 17  1  0
 12 13  1  0
 12 14  1  0
 12 15  1  0
 17 18  1  0
 17 19  1  0
 17 20  1  0
M  CHG  1   8   1
M  END
>  <PDB_ID>  (1199) 
pdb3pac

>  <RESIDUE_NAME>  (1199) 
LYS   MET

>  <FRAG_NAME>  (1199) 
ETAM   MSM

>  <FRAG_ATOM_NUM>  (1199) 
fragi: 11  fragj: 9

>  <atom.prop.CHAIN_ID>  (1199) 
A A A A A A A A A A A Z Z Z Z Z Z Z Z Z

>  <atom.prop.IS_HEAVY_ATOM>  (1199) 
1 0 0 0 1 0 0 1 0 0 0 1 0 0 0 1 1 0 0 0

>  <DIFUSE_FUNC_ATOM>  (1199) 
n/a

>  <FINAL_SINGLE_POINT_ENERGY>  (1199) 
0

>  <NONCOV_INTER_ENERGY_QM>  (1199) 
0

>  <FF_Energy>  (1199) 
18.69

>  <QM_Energy>  (1199) 
4.85

>  <source>  (1199) 
ETAM_MSM

>  <Index>  (1199) 
7512

$$$$
ETAM-pdb4n4g-A-LYS-344:MSM-pdb4n4g-A-MET-341
     RDKit          3D

 20 18  0  0  0  0  0  0  0  0999 V2000
    1.2372    0.8743   -0.0000 C   0  0  0  0  0  0  0  0  0  0  0  0
    1.3024    1.3345    0.8818 H   0  0  0  0  0  0  0  0  0  0  0  0
    1.1519    1.5476   -0.7299 H   0  0  0  0  0  0  0  0  0  0  0  0
    2.1451    0.2928   -0.1609 H   0  0  0  0  0  0  0  0  0  0  0  0
    0.0000    0.0000    0.0000 C   0  0  0  0  0  0  0  0  0  0  0  0
    0.0062   -0.5774   -0.8166 H   0  0  0  0  0  0  0  0  0  0  0  0
    0.0062   -0.5772    0.8164 H   0  0  0  0  0  0  0  0  0  0  0  0
   -1.2372    0.8310   -0.0000 N   0  0  0  0  0  4  0  0  0  0  0  0
   -1.2136    1.4581    0.7776 H   0  0  0  0  0  0  0  0  0  0  0  0
   -1.2851    1.3526   -0.8503 H   0  0  0  0  0  0  0  0  0  0  0  0
   -2.0362    0.2349    0.0736 H   0  0  0  0  0  0  0  0  0  0  0  0
   -2.6877   -3.8601    0.6897 C   0  0  0  0  0  0  0  0  0  0  0  0
   -2.8833   -3.7375   -0.3045 H   0  0  0  0  0  0  0  0  0  0  0  0
   -3.4545   -4.4186    1.0650 H   0  0  0  0  0  0  0  0  0  0  0  0
   -1.7603   -4.4228    0.7960 H   0  0  0  0  0  0  0  0  0  0  0  0
   -2.5910   -2.2665    1.5229 S   0  0  0  0  0  0  0  0  0  0  0  0
   -2.4697   -2.7986    3.2261 C   0  0  0  0  0  0  0  0  0  0  0  0
   -2.6829   -3.7746    3.2903 H   0  0  0  0  0  0  0  0  0  0  0  0
   -1.5397   -2.6403    3.5630 H   0  0  0  0  0  0  0  0  0  0  0  0
   -3.1169   -2.2808    3.7879 H   0  0  0  0  0  0  0  0  0  0  0  0
  1  5  1  0
  5  8  1  0
  1  2  1  0
  1  3  1  0
  1  4  1  0
  5  6  1  0
  5  7  1  0
  8  9  1  0
  8 10  1  0
  8 11  1  0
 12 16  1  0
 16 17  1  0
 12 13  1  0
 12 14  1  0
 12 15  1  0
 17 18  1  0
 17 19  1  0
 17 20  1  0
M  CHG  1   8   1
M  END
>  <PDB_ID>  (1200) 
pdb4n4g

>  <RESIDUE_NAME>  (1200) 
LYS   MET

>  <FRAG_NAME>  (1200) 
ETAM   MSM

>  <FRAG_ATOM_NUM>  (1200) 
fragi: 11  fragj: 9

>  <atom.prop.CHAIN_ID>  (1200) 
A A A A A A A A A A A Z Z Z Z Z Z Z Z Z

>  <atom.prop.IS_HEAVY_ATOM>  (1200) 
1 0 0 0 1 0 0 1 0 0 0 1 0 0 0 1 1 0 0 0

>  <DIFUSE_FUNC_ATOM>  (1200) 
n/a

>  <FINAL_SINGLE_POINT_ENERGY>  (1200) 
0

>  <NONCOV_INTER_ENERGY_QM>  (1200) 
0

>  <FF_Energy>  (1200) 
-5.39

>  <QM_Energy>  (1200) 
-12.24

>  <source>  (1200) 
ETAM_MSM

>  <Index>  (1200) 
7515

$$$$
ETAM-pdb4n7q-A-LYS-94:MSM-pdb4n7q-A-MET-539
     RDKit          3D

 20 18  0  0  0  0  0  0  0  0999 V2000
    1.2552    0.8725    0.0000 C   0  0  0  0  0  0  0  0  0  0  0  0
    1.1885    1.5196   -0.7680 H   0  0  0  0  0  0  0  0  0  0  0  0
    2.0520    0.2773   -0.1522 H   0  0  0  0  0  0  0  0  0  0  0  0
    1.4124    1.4377    0.9187 H   0  0  0  0  0  0  0  0  0  0  0  0
    0.0000    0.0000    0.0000 C   0  0  0  0  0  0  0  0  0  0  0  0
    0.0154   -0.5870   -0.8157 H   0  0  0  0  0  0  0  0  0  0  0  0
    0.0153   -0.5869    0.8168 H   0  0  0  0  0  0  0  0  0  0  0  0
   -1.2552    0.8053   -0.0000 N   0  0  0  0  0  4  0  0  0  0  0  0
   -1.5705    0.9243   -0.9405 H   0  0  0  0  0  0  0  0  0  0  0  0
   -1.9544    0.3276    0.5304 H   0  0  0  0  0  0  0  0  0  0  0  0
   -1.0742    1.6979    0.4104 H   0  0  0  0  0  0  0  0  0  0  0  0
    1.7615    1.3253   -3.2790 C   0  0  0  0  0  0  0  0  0  0  0  0
    1.3780    2.2862   -3.2266 H   0  0  0  0  0  0  0  0  0  0  0  0
    1.5287    0.9127   -2.3574 H   0  0  0  0  0  0  0  0  0  0  0  0
    1.2171    0.7790   -4.0494 H   0  0  0  0  0  0  0  0  0  0  0  0
    3.5462    1.3716   -3.5153 S   0  0  0  0  0  0  0  0  0  0  0  0
    3.6481    1.9869   -5.1975 C   0  0  0  0  0  0  0  0  0  0  0  0
    4.5554    2.3780   -5.3562 H   0  0  0  0  0  0  0  0  0  0  0  0
    3.4940    1.2341   -5.8383 H   0  0  0  0  0  0  0  0  0  0  0  0
    2.9518    2.6918   -5.3383 H   0  0  0  0  0  0  0  0  0  0  0  0
  1  5  1  0
  5  8  1  0
  1  2  1  0
  1  3  1  0
  1  4  1  0
  5  6  1  0
  5  7  1  0
  8  9  1  0
  8 10  1  0
  8 11  1  0
 12 16  1  0
 16 17  1  0
 12 13  1  0
 12 14  1  0
 12 15  1  0
 17 18  1  0
 17 19  1  0
 17 20  1  0
M  CHG  1   8   1
M  END
>  <PDB_ID>  (1201) 
pdb4n7q

>  <RESIDUE_NAME>  (1201) 
LYS   MET

>  <FRAG_NAME>  (1201) 
ETAM   MSM

>  <FRAG_ATOM_NUM>  (1201) 
fragi: 11  fragj: 9

>  <atom.prop.CHAIN_ID>  (1201) 
A A A A A A A A A A A Z Z Z Z Z Z Z Z Z

>  <atom.prop.IS_HEAVY_ATOM>  (1201) 
1 0 0 0 1 0 0 1 0 0 0 1 0 0 0 1 1 0 0 0

>  <DIFUSE_FUNC_ATOM>  (1201) 
n/a

>  <FINAL_SINGLE_POINT_ENERGY>  (1201) 
0

>  <NONCOV_INTER_ENERGY_QM>  (1201) 
0

>  <FF_Energy>  (1201) 
7.02

>  <QM_Energy>  (1201) 
1.9

>  <source>  (1201) 
ETAM_MSM

>  <Index>  (1201) 
7531

$$$$
ETAM-pdb4n7q-A-LYS-170:MSM-pdb4n7q-A-MET-166
     RDKit          3D

 20 18  0  0  0  0  0  0  0  0999 V2000
    1.2373    0.8744    0.0000 C   0  0  0  0  0  0  0  0  0  0  0  0
    1.2023    1.4788    0.7923 H   0  0  0  0  0  0  0  0  0  0  0  0
    1.2476    1.4144   -0.8391 H   0  0  0  0  0  0  0  0  0  0  0  0
    2.1537    0.2862    0.0496 H   0  0  0  0  0  0  0  0  0  0  0  0
    0.0000    0.0000    0.0000 C   0  0  0  0  0  0  0  0  0  0  0  0
   -0.0001   -0.5723   -0.8164 H   0  0  0  0  0  0  0  0  0  0  0  0
   -0.0005   -0.5723    0.8168 H   0  0  0  0  0  0  0  0  0  0  0  0
   -1.2373    0.8468    0.0000 N   0  0  0  0  0  4  0  0  0  0  0  0
   -0.9759    1.8063   -0.0745 H   0  0  0  0  0  0  0  0  0  0  0  0
   -1.8079    0.5897   -0.7766 H   0  0  0  0  0  0  0  0  0  0  0  0
   -1.7356    0.6962    0.8514 H   0  0  0  0  0  0  0  0  0  0  0  0
    0.0805   -0.1803    3.6849 C   0  0  0  0  0  0  0  0  0  0  0  0
    0.4434    0.6783    3.2328 H   0  0  0  0  0  0  0  0  0  0  0  0
    0.6118   -0.9460    3.2332 H   0  0  0  0  0  0  0  0  0  0  0  0
    0.3634   -0.1503    4.7372 H   0  0  0  0  0  0  0  0  0  0  0  0
   -1.6928   -0.3652    3.3712 S   0  0  0  0  0  0  0  0  0  0  0  0
   -1.8391   -2.1418    3.4091 C   0  0  0  0  0  0  0  0  0  0  0  0
   -2.3976   -2.4532    2.6365 H   0  0  0  0  0  0  0  0  0  0  0  0
   -0.9294   -2.5589    3.3463 H   0  0  0  0  0  0  0  0  0  0  0  0
   -2.2739   -2.4284    4.2659 H   0  0  0  0  0  0  0  0  0  0  0  0
  1  5  1  0
  5  8  1  0
  1  2  1  0
  1  3  1  0
  1  4  1  0
  5  6  1  0
  5  7  1  0
  8  9  1  0
  8 10  1  0
  8 11  1  0
 12 16  1  0
 16 17  1  0
 12 13  1  0
 12 14  1  0
 12 15  1  0
 17 18  1  0
 17 19  1  0
 17 20  1  0
M  CHG  1   8   1
M  END
>  <PDB_ID>  (1202) 
pdb4n7q

>  <RESIDUE_NAME>  (1202) 
LYS   MET

>  <FRAG_NAME>  (1202) 
ETAM   MSM

>  <FRAG_ATOM_NUM>  (1202) 
fragi: 11  fragj: 9

>  <atom.prop.CHAIN_ID>  (1202) 
A A A A A A A A A A A Z Z Z Z Z Z Z Z Z

>  <atom.prop.IS_HEAVY_ATOM>  (1202) 
1 0 0 0 1 0 0 1 0 0 0 1 0 0 0 1 1 0 0 0

>  <DIFUSE_FUNC_ATOM>  (1202) 
n/a

>  <FINAL_SINGLE_POINT_ENERGY>  (1202) 
0

>  <NONCOV_INTER_ENERGY_QM>  (1202) 
0

>  <FF_Energy>  (1202) 
-4.84

>  <QM_Energy>  (1202) 
-13.77

>  <source>  (1202) 
ETAM_MSM

>  <Index>  (1202) 
7533

$$$$
ETAM-pdb3pfd-A-LYS-101:MSM-pdb3pfd-A-MET-105
     RDKit          3D

 20 18  0  0  0  0  0  0  0  0999 V2000
    1.2359    0.8711   -0.0000 C   0  0  0  0  0  0  0  0  0  0  0  0
    1.5346    0.9978    0.9238 H   0  0  0  0  0  0  0  0  0  0  0  0
    1.0298    1.7137   -0.4545 H   0  0  0  0  0  0  0  0  0  0  0  0
    2.0040    0.3361   -0.5585 H   0  0  0  0  0  0  0  0  0  0  0  0
    0.0000    0.0000    0.0000 C   0  0  0  0  0  0  0  0  0  0  0  0
    0.0247   -0.5947   -0.8158 H   0  0  0  0  0  0  0  0  0  0  0  0
    0.0244   -0.5949    0.8162 H   0  0  0  0  0  0  0  0  0  0  0  0
   -1.2359    0.7830   -0.0000 N   0  0  0  0  0  4  0  0  0  0  0  0
   -1.9442    0.3084    0.5303 H   0  0  0  0  0  0  0  0  0  0  0  0
   -1.0720    1.6842    0.4099 H   0  0  0  0  0  0  0  0  0  0  0  0
   -1.5634    0.9085   -0.9409 H   0  0  0  0  0  0  0  0  0  0  0  0
    0.3010   -1.8096   -3.3196 C   0  0  0  0  0  0  0  0  0  0  0  0
    1.1189   -1.2351   -2.9684 H   0  0  0  0  0  0  0  0  0  0  0  0
   -0.3667   -1.0438   -3.6194 H   0  0  0  0  0  0  0  0  0  0  0  0
    0.6373   -2.3035   -4.2312 H   0  0  0  0  0  0  0  0  0  0  0  0
   -0.4080   -2.7881   -1.9886 S   0  0  0  0  0  0  0  0  0  0  0  0
   -1.9642   -3.2496   -2.7718 C   0  0  0  0  0  0  0  0  0  0  0  0
   -2.2675   -2.5071   -3.3673 H   0  0  0  0  0  0  0  0  0  0  0  0
   -1.8290   -4.0790   -3.3126 H   0  0  0  0  0  0  0  0  0  0  0  0
   -2.6517   -3.4170   -2.0670 H   0  0  0  0  0  0  0  0  0  0  0  0
  1  5  1  0
  5  8  1  0
  1  2  1  0
  1  3  1  0
  1  4  1  0
  5  6  1  0
  5  7  1  0
  8  9  1  0
  8 10  1  0
  8 11  1  0
 12 16  1  0
 16 17  1  0
 12 13  1  0
 12 14  1  0
 12 15  1  0
 17 18  1  0
 17 19  1  0
 17 20  1  0
M  CHG  1   8   1
M  END
>  <PDB_ID>  (1203) 
pdb3pfd

>  <RESIDUE_NAME>  (1203) 
LYS   MET

>  <FRAG_NAME>  (1203) 
ETAM   MSM

>  <FRAG_ATOM_NUM>  (1203) 
fragi: 11  fragj: 9

>  <atom.prop.CHAIN_ID>  (1203) 
A A A A A A A A A A A Z Z Z Z Z Z Z Z Z

>  <atom.prop.IS_HEAVY_ATOM>  (1203) 
1 0 0 0 1 0 0 1 0 0 0 1 0 0 0 1 1 0 0 0

>  <DIFUSE_FUNC_ATOM>  (1203) 
n/a

>  <FINAL_SINGLE_POINT_ENERGY>  (1203) 
0

>  <NONCOV_INTER_ENERGY_QM>  (1203) 
0

>  <FF_Energy>  (1203) 
-0.94

>  <QM_Energy>  (1203) 
-6.15

>  <source>  (1203) 
ETAM_MSM

>  <Index>  (1203) 
7536

$$$$
ETAM-pdb3pfd-A-LYS-163:MSM-pdb3pfd-A-MET-146
     RDKit          3D

 20 18  0  0  0  0  0  0  0  0999 V2000
    1.2205    0.9017   -0.0000 C   0  0  0  0  0  0  0  0  0  0  0  0
    1.2816    1.3627    0.8833 H   0  0  0  0  0  0  0  0  0  0  0  0
    1.1236    1.5765   -0.7287 H   0  0  0  0  0  0  0  0  0  0  0  0
    2.1473    0.3517   -0.1632 H   0  0  0  0  0  0  0  0  0  0  0  0
    0.0000    0.0000    0.0000 C   0  0  0  0  0  0  0  0  0  0  0  0
   -0.0010   -0.5529   -0.8157 H   0  0  0  0  0  0  0  0  0  0  0  0
   -0.0012   -0.5529    0.8169 H   0  0  0  0  0  0  0  0  0  0  0  0
   -1.2205    0.8774    0.0000 N   0  0  0  0  0  4  0  0  0  0  0  0
   -1.1777    1.4926    0.7834 H   0  0  0  0  0  0  0  0  0  0  0  0
   -1.2407    1.4043   -0.8467 H   0  0  0  0  0  0  0  0  0  0  0  0
   -2.0329    0.3024    0.0628 H   0  0  0  0  0  0  0  0  0  0  0  0
   -5.3538    2.2002   -0.6985 C   0  0  0  0  0  0  0  0  0  0  0  0
   -6.2498    2.6096   -0.3857 H   0  0  0  0  0  0  0  0  0  0  0  0
   -5.5348    1.9019   -1.6714 H   0  0  0  0  0  0  0  0  0  0  0  0
   -4.6159    3.0019   -0.7291 H   0  0  0  0  0  0  0  0  0  0  0  0
   -4.8867    0.8087    0.3281 S   0  0  0  0  0  0  0  0  0  0  0  0
   -5.3180    1.4268    1.9365 C   0  0  0  0  0  0  0  0  0  0  0  0
   -5.1562    2.4165    1.9789 H   0  0  0  0  0  0  0  0  0  0  0  0
   -6.2867    1.2465    2.1250 H   0  0  0  0  0  0  0  0  0  0  0  0
   -4.7606    0.9753    2.6389 H   0  0  0  0  0  0  0  0  0  0  0  0
  1  5  1  0
  5  8  1  0
  1  2  1  0
  1  3  1  0
  1  4  1  0
  5  6  1  0
  5  7  1  0
  8  9  1  0
  8 10  1  0
  8 11  1  0
 12 16  1  0
 16 17  1  0
 12 13  1  0
 12 14  1  0
 12 15  1  0
 17 18  1  0
 17 19  1  0
 17 20  1  0
M  CHG  1   8   1
M  END
>  <PDB_ID>  (1204) 
pdb3pfd

>  <RESIDUE_NAME>  (1204) 
LYS   MET

>  <FRAG_NAME>  (1204) 
ETAM   MSM

>  <FRAG_ATOM_NUM>  (1204) 
fragi: 11  fragj: 9

>  <atom.prop.CHAIN_ID>  (1204) 
A A A A A A A A A A A Z Z Z Z Z Z Z Z Z

>  <atom.prop.IS_HEAVY_ATOM>  (1204) 
1 0 0 0 1 0 0 1 0 0 0 1 0 0 0 1 1 0 0 0

>  <DIFUSE_FUNC_ATOM>  (1204) 
n/a

>  <FINAL_SINGLE_POINT_ENERGY>  (1204) 
0

>  <NONCOV_INTER_ENERGY_QM>  (1204) 
0

>  <FF_Energy>  (1204) 
-4.34

>  <QM_Energy>  (1204) 
-11.84

>  <source>  (1204) 
ETAM_MSM

>  <Index>  (1204) 
7537

$$$$
ETAM-pdb3pfd-C-LYS-163:MSM-pdb3pfd-C-MET-146
     RDKit          3D

 20 18  0  0  0  0  0  0  0  0999 V2000
    1.2500    0.8765   -0.0000 C   0  0  0  0  0  0  0  0  0  0  0  0
    1.3321    1.3152    0.8814 H   0  0  0  0  0  0  0  0  0  0  0  0
    1.1742    1.5400   -0.7286 H   0  0  0  0  0  0  0  0  0  0  0  0
    2.1404    0.2715   -0.1713 H   0  0  0  0  0  0  0  0  0  0  0  0
    0.0000    0.0000    0.0000 C   0  0  0  0  0  0  0  0  0  0  0  0
    0.0091   -0.5779   -0.8164 H   0  0  0  0  0  0  0  0  0  0  0  0
    0.0080   -0.5784    0.8164 H   0  0  0  0  0  0  0  0  0  0  0  0
   -1.2500    0.8265    0.0000 N   0  0  0  0  0  4  0  0  0  0  0  0
   -1.2263    1.4534   -0.7754 H   0  0  0  0  0  0  0  0  0  0  0  0
   -2.0407    0.2223   -0.0767 H   0  0  0  0  0  0  0  0  0  0  0  0
   -1.3002    1.3437    0.8521 H   0  0  0  0  0  0  0  0  0  0  0  0
   -5.1768    2.5006   -0.6380 C   0  0  0  0  0  0  0  0  0  0  0  0
   -6.1006    2.8939   -0.3887 H   0  0  0  0  0  0  0  0  0  0  0  0
   -5.2614    2.2698   -1.6430 H   0  0  0  0  0  0  0  0  0  0  0  0
   -4.4432    3.3014   -0.5450 H   0  0  0  0  0  0  0  0  0  0  0  0
   -4.8172    1.0311    0.3338 S   0  0  0  0  0  0  0  0  0  0  0  0
   -5.1492    1.6077    2.0071 C   0  0  0  0  0  0  0  0  0  0  0  0
   -4.3462    2.0891    2.3572 H   0  0  0  0  0  0  0  0  0  0  0  0
   -5.9329    2.2278    1.9945 H   0  0  0  0  0  0  0  0  0  0  0  0
   -5.3518    0.8238    2.5932 H   0  0  0  0  0  0  0  0  0  0  0  0
  1  5  1  0
  5  8  1  0
  1  2  1  0
  1  3  1  0
  1  4  1  0
  5  6  1  0
  5  7  1  0
  8  9  1  0
  8 10  1  0
  8 11  1  0
 12 16  1  0
 16 17  1  0
 12 13  1  0
 12 14  1  0
 12 15  1  0
 17 18  1  0
 17 19  1  0
 17 20  1  0
M  CHG  1   8   1
M  END
>  <PDB_ID>  (1205) 
pdb3pfd

>  <RESIDUE_NAME>  (1205) 
LYS   MET

>  <FRAG_NAME>  (1205) 
ETAM   MSM

>  <FRAG_ATOM_NUM>  (1205) 
fragi: 11  fragj: 9

>  <atom.prop.CHAIN_ID>  (1205) 
A A A A A A A A A A A Z Z Z Z Z Z Z Z Z

>  <atom.prop.IS_HEAVY_ATOM>  (1205) 
1 0 0 0 1 0 0 1 0 0 0 1 0 0 0 1 1 0 0 0

>  <DIFUSE_FUNC_ATOM>  (1205) 
n/a

>  <FINAL_SINGLE_POINT_ENERGY>  (1205) 
0

>  <NONCOV_INTER_ENERGY_QM>  (1205) 
0

>  <FF_Energy>  (1205) 
-4.39

>  <QM_Energy>  (1205) 
-11.76

>  <source>  (1205) 
ETAM_MSM

>  <Index>  (1205) 
7540

$$$$
ETAM-pdb3pfd-D-LYS-163:MSM-pdb3pfd-D-MET-146
     RDKit          3D

 20 18  0  0  0  0  0  0  0  0999 V2000
    1.2574    0.8590    0.0000 C   0  0  0  0  0  0  0  0  0  0  0  0
    1.1929    1.5204    0.7337 H   0  0  0  0  0  0  0  0  0  0  0  0
    1.3389    1.3065   -0.8792 H   0  0  0  0  0  0  0  0  0  0  0  0
    2.1433    0.2449    0.1619 H   0  0  0  0  0  0  0  0  0  0  0  0
    0.0000    0.0000    0.0000 C   0  0  0  0  0  0  0  0  0  0  0  0
   -0.0025   -0.5802   -0.8160 H   0  0  0  0  0  0  0  0  0  0  0  0
   -0.0037   -0.5801    0.8165 H   0  0  0  0  0  0  0  0  0  0  0  0
   -1.2574    0.8389   -0.0000 N   0  0  0  0  0  4  0  0  0  0  0  0
   -1.6701    0.7966    0.9056 H   0  0  0  0  0  0  0  0  0  0  0  0
   -1.0153    1.7791   -0.2239 H   0  0  0  0  0  0  0  0  0  0  0  0
   -1.8857    0.4744   -0.6817 H   0  0  0  0  0  0  0  0  0  0  0  0
   -5.3253    1.6957   -1.5707 C   0  0  0  0  0  0  0  0  0  0  0  0
   -6.2325    2.1567   -1.6292 H   0  0  0  0  0  0  0  0  0  0  0  0
   -5.3564    0.9131   -2.2239 H   0  0  0  0  0  0  0  0  0  0  0  0
   -4.5682    2.3975   -1.9206 H   0  0  0  0  0  0  0  0  0  0  0  0
   -4.9881    1.1327    0.1045 S   0  0  0  0  0  0  0  0  0  0  0  0
   -5.0980    2.6462    1.0571 C   0  0  0  0  0  0  0  0  0  0  0  0
   -5.8729    2.5897    1.6886 H   0  0  0  0  0  0  0  0  0  0  0  0
   -4.2541    2.7764    1.5787 H   0  0  0  0  0  0  0  0  0  0  0  0
   -5.2290    3.4230    0.4394 H   0  0  0  0  0  0  0  0  0  0  0  0
  1  5  1  0
  5  8  1  0
  1  2  1  0
  1  3  1  0
  1  4  1  0
  5  6  1  0
  5  7  1  0
  8  9  1  0
  8 10  1  0
  8 11  1  0
 12 16  1  0
 16 17  1  0
 12 13  1  0
 12 14  1  0
 12 15  1  0
 17 18  1  0
 17 19  1  0
 17 20  1  0
M  CHG  1   8   1
M  END
>  <PDB_ID>  (1206) 
pdb3pfd

>  <RESIDUE_NAME>  (1206) 
LYS   MET

>  <FRAG_NAME>  (1206) 
ETAM   MSM

>  <FRAG_ATOM_NUM>  (1206) 
fragi: 11  fragj: 9

>  <atom.prop.CHAIN_ID>  (1206) 
A A A A A A A A A A A Z Z Z Z Z Z Z Z Z

>  <atom.prop.IS_HEAVY_ATOM>  (1206) 
1 0 0 0 1 0 0 1 0 0 0 1 0 0 0 1 1 0 0 0

>  <DIFUSE_FUNC_ATOM>  (1206) 
n/a

>  <FINAL_SINGLE_POINT_ENERGY>  (1206) 
0

>  <NONCOV_INTER_ENERGY_QM>  (1206) 
0

>  <FF_Energy>  (1206) 
-3.69

>  <QM_Energy>  (1206) 
-9.87

>  <source>  (1206) 
ETAM_MSM

>  <Index>  (1206) 
7541

$$$$
ETAM-pdb4nax-A-LYS-33:MSM-pdb4nax-A-MET-123
     RDKit          3D

 20 18  0  0  0  0  0  0  0  0999 V2000
    1.2396    0.8786   -0.0000 C   0  0  0  0  0  0  0  0  0  0  0  0
    1.1651    1.5306    0.7677 H   0  0  0  0  0  0  0  0  0  0  0  0
    1.2500    1.4105   -0.8590 H   0  0  0  0  0  0  0  0  0  0  0  0
    2.1839    0.3417    0.0898 H   0  0  0  0  0  0  0  0  0  0  0  0
    0.0000    0.0000    0.0000 C   0  0  0  0  0  0  0  0  0  0  0  0
   -0.0036   -0.5660   -0.8162 H   0  0  0  0  0  0  0  0  0  0  0  0
   -0.0034   -0.5668    0.8164 H   0  0  0  0  0  0  0  0  0  0  0  0
   -1.2396    0.8601   -0.0000 N   0  0  0  0  0  4  0  0  0  0  0  0
   -1.2144    1.4608    0.7942 H   0  0  0  0  0  0  0  0  0  0  0  0
   -1.2565    1.3999   -0.8372 H   0  0  0  0  0  0  0  0  0  0  0  0
   -2.0405    0.2692    0.0432 H   0  0  0  0  0  0  0  0  0  0  0  0
   -4.0917    3.5284   -2.8481 C   0  0  0  0  0  0  0  0  0  0  0  0
   -3.5892    2.9175   -3.5208 H   0  0  0  0  0  0  0  0  0  0  0  0
   -3.9548    4.4827   -3.2354 H   0  0  0  0  0  0  0  0  0  0  0  0
   -5.1531    3.2945   -2.9306 H   0  0  0  0  0  0  0  0  0  0  0  0
   -3.3948    3.3910   -1.2021 S   0  0  0  0  0  0  0  0  0  0  0  0
   -4.1696    4.7773   -0.4151 C   0  0  0  0  0  0  0  0  0  0  0  0
   -5.1638    4.7399   -0.5511 H   0  0  0  0  0  0  0  0  0  0  0  0
   -3.9774    4.7673    0.5704 H   0  0  0  0  0  0  0  0  0  0  0  0
   -3.8205    5.6343   -0.8047 H   0  0  0  0  0  0  0  0  0  0  0  0
  1  5  1  0
  5  8  1  0
  1  2  1  0
  1  3  1  0
  1  4  1  0
  5  6  1  0
  5  7  1  0
  8  9  1  0
  8 10  1  0
  8 11  1  0
 12 16  1  0
 16 17  1  0
 12 13  1  0
 12 14  1  0
 12 15  1  0
 17 18  1  0
 17 19  1  0
 17 20  1  0
M  CHG  1   8   1
M  END
>  <PDB_ID>  (1207) 
pdb4nax

>  <RESIDUE_NAME>  (1207) 
LYS   MET

>  <FRAG_NAME>  (1207) 
ETAM   MSM

>  <FRAG_ATOM_NUM>  (1207) 
fragi: 11  fragj: 9

>  <atom.prop.CHAIN_ID>  (1207) 
A A A A A A A A A A A Z Z Z Z Z Z Z Z Z

>  <atom.prop.IS_HEAVY_ATOM>  (1207) 
1 0 0 0 1 0 0 1 0 0 0 1 0 0 0 1 1 0 0 0

>  <DIFUSE_FUNC_ATOM>  (1207) 
n/a

>  <FINAL_SINGLE_POINT_ENERGY>  (1207) 
0

>  <NONCOV_INTER_ENERGY_QM>  (1207) 
0

>  <FF_Energy>  (1207) 
-5.24

>  <QM_Energy>  (1207) 
-11.72

>  <source>  (1207) 
ETAM_MSM

>  <Index>  (1207) 
7546

$$$$
ETAM-pdb3ph0-D-LYS-6:MSM-pdb3ph0-D-MET-1
     RDKit          3D

 20 18  0  0  0  0  0  0  0  0999 V2000
    1.2634    0.8660   -0.0000 C   0  0  0  0  0  0  0  0  0  0  0  0
    1.1965    1.5146    0.7499 H   0  0  0  0  0  0  0  0  0  0  0  0
    1.3144    1.3428   -0.8700 H   0  0  0  0  0  0  0  0  0  0  0  0
    2.1616    0.2623    0.1300 H   0  0  0  0  0  0  0  0  0  0  0  0
    0.0000    0.0000    0.0000 C   0  0  0  0  0  0  0  0  0  0  0  0
    0.0136   -0.5888   -0.8164 H   0  0  0  0  0  0  0  0  0  0  0  0
    0.0131   -0.5890    0.8165 H   0  0  0  0  0  0  0  0  0  0  0  0
   -1.2634    0.8040   -0.0000 N   0  0  0  0  0  4  0  0  0  0  0  0
   -1.7763    0.6066    0.8334 H   0  0  0  0  0  0  0  0  0  0  0  0
   -1.0337    1.7744   -0.0338 H   0  0  0  0  0  0  0  0  0  0  0  0
   -1.8078    0.5574   -0.7987 H   0  0  0  0  0  0  0  0  0  0  0  0
   -2.8865   -0.4884    2.9835 C   0  0  0  0  0  0  0  0  0  0  0  0
   -3.3746   -1.4169    3.1539 H   0  0  0  0  0  0  0  0  0  0  0  0
   -3.0582   -0.0085    3.9161 H   0  0  0  0  0  0  0  0  0  0  0  0
   -1.8200   -0.7109    2.9513 H   0  0  0  0  0  0  0  0  0  0  0  0
   -3.7958    0.4562    1.6150 S   0  0  0  0  0  0  0  0  0  0  0  0
   -5.3441   -0.5915    1.4420 C   0  0  0  0  0  0  0  0  0  0  0  0
   -6.0318   -0.0282    1.0130 H   0  0  0  0  0  0  0  0  0  0  0  0
   -5.1097   -1.3693    0.8815 H   0  0  0  0  0  0  0  0  0  0  0  0
   -5.6140   -0.8668    2.3512 H   0  0  0  0  0  0  0  0  0  0  0  0
  1  5  1  0
  5  8  1  0
  1  2  1  0
  1  3  1  0
  1  4  1  0
  5  6  1  0
  5  7  1  0
  8  9  1  0
  8 10  1  0
  8 11  1  0
 12 16  1  0
 16 17  1  0
 12 13  1  0
 12 14  1  0
 12 15  1  0
 17 18  1  0
 17 19  1  0
 17 20  1  0
M  CHG  1   8   1
M  END
>  <PDB_ID>  (1208) 
pdb3ph0

>  <RESIDUE_NAME>  (1208) 
LYS   MET

>  <FRAG_NAME>  (1208) 
ETAM   MSM

>  <FRAG_ATOM_NUM>  (1208) 
fragi: 11  fragj: 9

>  <atom.prop.CHAIN_ID>  (1208) 
A A A A A A A A A A A Z Z Z Z Z Z Z Z Z

>  <atom.prop.IS_HEAVY_ATOM>  (1208) 
1 0 0 0 1 0 0 1 0 0 0 1 0 0 0 1 1 0 0 0

>  <DIFUSE_FUNC_ATOM>  (1208) 
n/a

>  <FINAL_SINGLE_POINT_ENERGY>  (1208) 
0

>  <NONCOV_INTER_ENERGY_QM>  (1208) 
0

>  <FF_Energy>  (1208) 
-4.22

>  <QM_Energy>  (1208) 
-12.32

>  <source>  (1208) 
ETAM_MSM

>  <Index>  (1208) 
7551

$$$$
ETAM-pdb4naw-B-LYS-136:MSM-pdb4naw-B-MET-173
     RDKit          3D

 20 18  0  0  0  0  0  0  0  0999 V2000
    1.2436    0.8673   -0.0000 C   0  0  0  0  0  0  0  0  0  0  0  0
    1.2263    1.4205    0.7968 H   0  0  0  0  0  0  0  0  0  0  0  0
    1.2235    1.4241   -0.7945 H   0  0  0  0  0  0  0  0  0  0  0  0
    2.1588    0.2752   -0.0022 H   0  0  0  0  0  0  0  0  0  0  0  0
    0.0000    0.0000    0.0000 C   0  0  0  0  0  0  0  0  0  0  0  0
   -0.0041   -0.5535   -0.7964 H   0  0  0  0  0  0  0  0  0  0  0  0
   -0.0042   -0.5539    0.7953 H   0  0  0  0  0  0  0  0  0  0  0  0
   -1.2436    0.8306    0.0000 N   0  0  0  0  0  4  0  0  0  0  0  0
   -1.9612    0.3031   -0.0003 H   0  0  0  0  0  0  0  0  0  0  0  0
   -1.2643    1.3469    0.7244 H   0  0  0  0  0  0  0  0  0  0  0  0
   -1.2649    1.3472   -0.7248 H   0  0  0  0  0  0  0  0  0  0  0  0
   -4.1750    4.4679    1.1976 C   0  0  0  0  0  0  0  0  0  0  0  0
   -4.7549    3.6994    1.3119 H   0  0  0  0  0  0  0  0  0  0  0  0
   -4.6673    5.1981    0.7905 H   0  0  0  0  0  0  0  0  0  0  0  0
   -3.8112    4.7866    2.1744 H   0  0  0  0  0  0  0  0  0  0  0  0
   -2.8398    4.0001    0.0748 S   0  0  0  0  0  0  0  0  0  0  0  0
   -3.7636    3.5028   -1.3784 C   0  0  0  0  0  0  0  0  0  0  0  0
   -3.1405    3.2234   -2.0675 H   0  0  0  0  0  0  0  0  0  0  0  0
   -4.3488    2.7659   -1.1428 H   0  0  0  0  0  0  0  0  0  0  0  0
   -4.2883    4.2561   -1.6917 H   0  0  0  0  0  0  0  0  0  0  0  0
  1  5  1  0
  5  8  1  0
  1  2  1  0
  1  3  1  0
  1  4  1  0
  5  6  1  0
  5  7  1  0
  8  9  1  0
  8 10  1  0
  8 11  1  0
 12 16  1  0
 16 17  1  0
 12 13  1  0
 12 14  1  0
 12 15  1  0
 17 18  1  0
 17 19  1  0
 17 20  1  0
M  CHG  1   8   1
M  END
>  <PDB_ID>  (1209) 
pdb4naw

>  <RESIDUE_NAME>  (1209) 
LYS   MET

>  <FRAG_NAME>  (1209) 
ETAM   MSM

>  <FRAG_ATOM_NUM>  (1209) 
fragi: 11  fragj: 9

>  <atom.prop.CHAIN_ID>  (1209) 
A A A A A A A A A A A Z Z Z Z Z Z Z Z Z

>  <atom.prop.IS_HEAVY_ATOM>  (1209) 
1 0 0 0 1 0 0 1 0 0 0 1 0 0 0 1 1 0 0 0

>  <DIFUSE_FUNC_ATOM>  (1209) 
n/a

>  <FINAL_SINGLE_POINT_ENERGY>  (1209) 
0

>  <NONCOV_INTER_ENERGY_QM>  (1209) 
0

>  <FF_Energy>  (1209) 
-4.22

>  <QM_Energy>  (1209) 
-11.28

>  <source>  (1209) 
ETAM_MSM

>  <Index>  (1209) 
7561

$$$$
ETAM-pdb4nax-B-LYS-33:MSM-pdb4nax-B-MET-123
     RDKit          3D

 20 18  0  0  0  0  0  0  0  0999 V2000
    1.2397    0.8804    0.0000 C   0  0  0  0  0  0  0  0  0  0  0  0
    1.1607    1.5399    0.7641 H   0  0  0  0  0  0  0  0  0  0  0  0
    1.2521    1.4110   -0.8619 H   0  0  0  0  0  0  0  0  0  0  0  0
    2.1897    0.3546    0.0955 H   0  0  0  0  0  0  0  0  0  0  0  0
    0.0000    0.0000    0.0000 C   0  0  0  0  0  0  0  0  0  0  0  0
   -0.0049   -0.5647   -0.8163 H   0  0  0  0  0  0  0  0  0  0  0  0
   -0.0053   -0.5647    0.8163 H   0  0  0  0  0  0  0  0  0  0  0  0
   -1.2397    0.8654    0.0000 N   0  0  0  0  0  4  0  0  0  0  0  0
   -1.0933    1.6340   -0.6167 H   0  0  0  0  0  0  0  0  0  0  0  0
   -2.0114    0.3175   -0.3095 H   0  0  0  0  0  0  0  0  0  0  0  0
   -1.4006    1.1939    0.9257 H   0  0  0  0  0  0  0  0  0  0  0  0
   -4.2686    3.4233   -2.8769 C   0  0  0  0  0  0  0  0  0  0  0  0
   -3.7596    2.7976   -3.5252 H   0  0  0  0  0  0  0  0  0  0  0  0
   -4.1669    4.3625   -3.3007 H   0  0  0  0  0  0  0  0  0  0  0  0
   -5.3238    3.1524   -2.9108 H   0  0  0  0  0  0  0  0  0  0  0  0
   -3.5329    3.3798   -1.2351 S   0  0  0  0  0  0  0  0  0  0  0  0
   -4.3826    4.7440   -0.4689 C   0  0  0  0  0  0  0  0  0  0  0  0
   -5.3717    4.5778   -0.4770 H   0  0  0  0  0  0  0  0  0  0  0  0
   -4.0758    4.8470    0.4806 H   0  0  0  0  0  0  0  0  0  0  0  0
   -4.1893    5.5912   -0.9693 H   0  0  0  0  0  0  0  0  0  0  0  0
  1  5  1  0
  5  8  1  0
  1  2  1  0
  1  3  1  0
  1  4  1  0
  5  6  1  0
  5  7  1  0
  8  9  1  0
  8 10  1  0
  8 11  1  0
 12 16  1  0
 16 17  1  0
 12 13  1  0
 12 14  1  0
 12 15  1  0
 17 18  1  0
 17 19  1  0
 17 20  1  0
M  CHG  1   8   1
M  END
>  <PDB_ID>  (1210) 
pdb4nax

>  <RESIDUE_NAME>  (1210) 
LYS   MET

>  <FRAG_NAME>  (1210) 
ETAM   MSM

>  <FRAG_ATOM_NUM>  (1210) 
fragi: 11  fragj: 9

>  <atom.prop.CHAIN_ID>  (1210) 
A A A A A A A A A A A Z Z Z Z Z Z Z Z Z

>  <atom.prop.IS_HEAVY_ATOM>  (1210) 
1 0 0 0 1 0 0 1 0 0 0 1 0 0 0 1 1 0 0 0

>  <DIFUSE_FUNC_ATOM>  (1210) 
n/a

>  <FINAL_SINGLE_POINT_ENERGY>  (1210) 
0

>  <NONCOV_INTER_ENERGY_QM>  (1210) 
0

>  <FF_Energy>  (1210) 
-5.04

>  <QM_Energy>  (1210) 
-11.42

>  <source>  (1210) 
ETAM_MSM

>  <Index>  (1210) 
7566

$$$$
ETAM-pdb4naw-F-LYS-136:MSM-pdb4naw-F-MET-173
     RDKit          3D

 20 18  0  0  0  0  0  0  0  0999 V2000
    1.2544    0.8653   -0.0000 C   0  0  0  0  0  0  0  0  0  0  0  0
    1.2866    1.3463    0.8415 H   0  0  0  0  0  0  0  0  0  0  0  0
    1.1860    1.4909   -0.7382 H   0  0  0  0  0  0  0  0  0  0  0  0
    2.1684    0.2821   -0.1121 H   0  0  0  0  0  0  0  0  0  0  0  0
    0.0000    0.0000    0.0000 C   0  0  0  0  0  0  0  0  0  0  0  0
   -0.0052   -0.5553   -0.7961 H   0  0  0  0  0  0  0  0  0  0  0  0
   -0.0043   -0.5546    0.7956 H   0  0  0  0  0  0  0  0  0  0  0  0
   -1.2544    0.8360   -0.0000 N   0  0  0  0  0  4  0  0  0  0  0  0
   -1.9716    0.3086    0.0003 H   0  0  0  0  0  0  0  0  0  0  0  0
   -1.2755    1.3526    0.7244 H   0  0  0  0  0  0  0  0  0  0  0  0
   -1.2761    1.3528   -0.7244 H   0  0  0  0  0  0  0  0  0  0  0  0
   -3.8620    4.3644    1.6268 C   0  0  0  0  0  0  0  0  0  0  0  0
   -4.4065    3.5643    1.6877 H   0  0  0  0  0  0  0  0  0  0  0  0
   -4.4000    5.1127    1.3235 H   0  0  0  0  0  0  0  0  0  0  0  0
   -3.4506    4.5946    2.6096 H   0  0  0  0  0  0  0  0  0  0  0  0
   -2.5666    4.0711    0.4061 S   0  0  0  0  0  0  0  0  0  0  0  0
   -3.5285    3.8786   -1.0932 C   0  0  0  0  0  0  0  0  0  0  0  0
   -2.9251    3.7121   -1.8351 H   0  0  0  0  0  0  0  0  0  0  0  0
   -4.1351    3.1293   -0.9855 H   0  0  0  0  0  0  0  0  0  0  0  0
   -4.0319    4.6918   -1.2515 H   0  0  0  0  0  0  0  0  0  0  0  0
  1  5  1  0
  5  8  1  0
  1  2  1  0
  1  3  1  0
  1  4  1  0
  5  6  1  0
  5  7  1  0
  8  9  1  0
  8 10  1  0
  8 11  1  0
 12 16  1  0
 16 17  1  0
 12 13  1  0
 12 14  1  0
 12 15  1  0
 17 18  1  0
 17 19  1  0
 17 20  1  0
M  CHG  1   8   1
M  END
>  <PDB_ID>  (1211) 
pdb4naw

>  <RESIDUE_NAME>  (1211) 
LYS   MET

>  <FRAG_NAME>  (1211) 
ETAM   MSM

>  <FRAG_ATOM_NUM>  (1211) 
fragi: 11  fragj: 9

>  <atom.prop.CHAIN_ID>  (1211) 
A A A A A A A A A A A Z Z Z Z Z Z Z Z Z

>  <atom.prop.IS_HEAVY_ATOM>  (1211) 
1 0 0 0 1 0 0 1 0 0 0 1 0 0 0 1 1 0 0 0

>  <DIFUSE_FUNC_ATOM>  (1211) 
n/a

>  <FINAL_SINGLE_POINT_ENERGY>  (1211) 
0

>  <NONCOV_INTER_ENERGY_QM>  (1211) 
0

>  <FF_Energy>  (1211) 
-4.31

>  <QM_Energy>  (1211) 
-11.85

>  <source>  (1211) 
ETAM_MSM

>  <Index>  (1211) 
7581

$$$$
ETAM-pdb4nf2-A-LYS-243:MSM-pdb4nf2-A-MET-233
     RDKit          3D

 20 18  0  0  0  0  0  0  0  0999 V2000
    1.2824    0.8155   -0.0000 C   0  0  0  0  0  0  0  0  0  0  0  0
    1.3154    1.3682    0.8183 H   0  0  0  0  0  0  0  0  0  0  0  0
    1.3134    1.3725   -0.8151 H   0  0  0  0  0  0  0  0  0  0  0  0
    2.1532    0.1598   -0.0026 H   0  0  0  0  0  0  0  0  0  0  0  0
    0.0000    0.0000    0.0000 C   0  0  0  0  0  0  0  0  0  0  0  0
    0.0019   -0.6135   -0.8156 H   0  0  0  0  0  0  0  0  0  0  0  0
    0.0017   -0.6140    0.8169 H   0  0  0  0  0  0  0  0  0  0  0  0
   -1.2824    0.7816    0.0000 N   0  0  0  0  0  4  0  0  0  0  0  0
   -1.9944    0.2384   -0.4394 H   0  0  0  0  0  0  0  0  0  0  0  0
   -1.5407    0.9820    0.9429 H   0  0  0  0  0  0  0  0  0  0  0  0
   -1.1444    1.6320   -0.5026 H   0  0  0  0  0  0  0  0  0  0  0  0
   -0.6525    5.1286   -2.6872 C   0  0  0  0  0  0  0  0  0  0  0  0
   -0.0432    5.9147   -2.9923 H   0  0  0  0  0  0  0  0  0  0  0  0
   -1.5621    5.5920   -2.4864 H   0  0  0  0  0  0  0  0  0  0  0  0
   -0.7976    4.4707   -3.5440 H   0  0  0  0  0  0  0  0  0  0  0  0
    0.0155    4.3600   -1.1710 S   0  0  0  0  0  0  0  0  0  0  0  0
    1.7351    4.2820   -1.6656 C   0  0  0  0  0  0  0  0  0  0  0  0
    2.2987    4.7702   -0.9982 H   0  0  0  0  0  0  0  0  0  0  0  0
    2.0285    3.3259   -1.7114 H   0  0  0  0  0  0  0  0  0  0  0  0
    1.8454    4.7053   -2.5658 H   0  0  0  0  0  0  0  0  0  0  0  0
  1  5  1  0
  5  8  1  0
  1  2  1  0
  1  3  1  0
  1  4  1  0
  5  6  1  0
  5  7  1  0
  8  9  1  0
  8 10  1  0
  8 11  1  0
 12 16  1  0
 16 17  1  0
 12 13  1  0
 12 14  1  0
 12 15  1  0
 17 18  1  0
 17 19  1  0
 17 20  1  0
M  CHG  1   8   1
M  END
>  <PDB_ID>  (1212) 
pdb4nf2

>  <RESIDUE_NAME>  (1212) 
LYS   MET

>  <FRAG_NAME>  (1212) 
ETAM   MSM

>  <FRAG_ATOM_NUM>  (1212) 
fragi: 11  fragj: 9

>  <atom.prop.CHAIN_ID>  (1212) 
A A A A A A A A A A A Z Z Z Z Z Z Z Z Z

>  <atom.prop.IS_HEAVY_ATOM>  (1212) 
1 0 0 0 1 0 0 1 0 0 0 1 0 0 0 1 1 0 0 0

>  <DIFUSE_FUNC_ATOM>  (1212) 
n/a

>  <FINAL_SINGLE_POINT_ENERGY>  (1212) 
0

>  <NONCOV_INTER_ENERGY_QM>  (1212) 
0

>  <FF_Energy>  (1212) 
-4.78

>  <QM_Energy>  (1212) 
-11.7

>  <source>  (1212) 
ETAM_MSM

>  <Index>  (1212) 
7582

$$$$
ETAM-pdb4nj5-A-LYS-185:MSM-pdb4nj5-A-MET-189
     RDKit          3D

 20 18  0  0  0  0  0  0  0  0999 V2000
    1.2460    0.8688    0.0000 C   0  0  0  0  0  0  0  0  0  0  0  0
    1.2307    1.4464   -0.8118 H   0  0  0  0  0  0  0  0  0  0  0  0
    2.0467    0.2764   -0.0155 H   0  0  0  0  0  0  0  0  0  0  0  0
    1.2952    1.5053    0.8836 H   0  0  0  0  0  0  0  0  0  0  0  0
    0.0000    0.0000    0.0000 C   0  0  0  0  0  0  0  0  0  0  0  0
    0.0119   -0.5855   -0.8158 H   0  0  0  0  0  0  0  0  0  0  0  0
    0.0112   -0.5860    0.8164 H   0  0  0  0  0  0  0  0  0  0  0  0
   -1.2460    0.8128   -0.0000 N   0  0  0  0  0  4  0  0  0  0  0  0
   -1.0090    1.7832   -0.0171 H   0  0  0  0  0  0  0  0  0  0  0  0
   -1.7896    0.5873   -0.8083 H   0  0  0  0  0  0  0  0  0  0  0  0
   -1.7733    0.6122    0.8250 H   0  0  0  0  0  0  0  0  0  0  0  0
   -1.9961    3.8390   -0.9135 C   0  0  0  0  0  0  0  0  0  0  0  0
   -2.6909    3.2139   -1.3260 H   0  0  0  0  0  0  0  0  0  0  0  0
   -1.0882    3.3992   -1.0737 H   0  0  0  0  0  0  0  0  0  0  0  0
   -2.0233    4.7922   -1.4415 H   0  0  0  0  0  0  0  0  0  0  0  0
   -2.2978    4.0539    0.8457 S   0  0  0  0  0  0  0  0  0  0  0  0
   -3.9952    4.6267    0.8276 C   0  0  0  0  0  0  0  0  0  0  0  0
   -4.0132    5.6254    0.9026 H   0  0  0  0  0  0  0  0  0  0  0  0
   -4.4339    4.3499   -0.0288 H   0  0  0  0  0  0  0  0  0  0  0  0
   -4.4928    4.2271    1.5995 H   0  0  0  0  0  0  0  0  0  0  0  0
  1  5  1  0
  5  8  1  0
  1  2  1  0
  1  3  1  0
  1  4  1  0
  5  6  1  0
  5  7  1  0
  8  9  1  0
  8 10  1  0
  8 11  1  0
 12 16  1  0
 16 17  1  0
 12 13  1  0
 12 14  1  0
 12 15  1  0
 17 18  1  0
 17 19  1  0
 17 20  1  0
M  CHG  1   8   1
M  END
>  <PDB_ID>  (1213) 
pdb4nj5

>  <RESIDUE_NAME>  (1213) 
LYS   MET

>  <FRAG_NAME>  (1213) 
ETAM   MSM

>  <FRAG_ATOM_NUM>  (1213) 
fragi: 11  fragj: 9

>  <atom.prop.CHAIN_ID>  (1213) 
A A A A A A A A A A A Z Z Z Z Z Z Z Z Z

>  <atom.prop.IS_HEAVY_ATOM>  (1213) 
1 0 0 0 1 0 0 1 0 0 0 1 0 0 0 1 1 0 0 0

>  <DIFUSE_FUNC_ATOM>  (1213) 
n/a

>  <FINAL_SINGLE_POINT_ENERGY>  (1213) 
0

>  <NONCOV_INTER_ENERGY_QM>  (1213) 
0

>  <FF_Energy>  (1213) 
-3.03

>  <QM_Energy>  (1213) 
-8.23

>  <source>  (1213) 
ETAM_MSM

>  <Index>  (1213) 
7592

$$$$
ETAM-pdb4njs-A-LYS-20:MSM-pdb4njs-A-MET-36
     RDKit          3D

 20 18  0  0  0  0  0  0  0  0999 V2000
    1.2502    0.8755   -0.0000 C   0  0  0  0  0  0  0  0  0  0  0  0
    1.4874    1.0906    0.9398 H   0  0  0  0  0  0  0  0  0  0  0  0
    1.0575    1.7041   -0.5113 H   0  0  0  0  0  0  0  0  0  0  0  0
    2.0944    0.3658   -0.4644 H   0  0  0  0  0  0  0  0  0  0  0  0
    0.0000    0.0000    0.0000 C   0  0  0  0  0  0  0  0  0  0  0  0
    0.0155   -0.5842   -0.8161 H   0  0  0  0  0  0  0  0  0  0  0  0
    0.0150   -0.5837    0.8166 H   0  0  0  0  0  0  0  0  0  0  0  0
   -1.2502    0.8096   -0.0000 N   0  0  0  0  0  4  0  0  0  0  0  0
   -2.0373    0.2029    0.1009 H   0  0  0  0  0  0  0  0  0  0  0  0
   -1.2255    1.4569    0.7617 H   0  0  0  0  0  0  0  0  0  0  0  0
   -1.3210    1.3095   -0.8624 H   0  0  0  0  0  0  0  0  0  0  0  0
   -3.1372    1.7586    4.0256 C   0  0  0  0  0  0  0  0  0  0  0  0
   -2.8011    2.6847    4.3200 H   0  0  0  0  0  0  0  0  0  0  0  0
   -3.7064    1.4191    4.8115 H   0  0  0  0  0  0  0  0  0  0  0  0
   -3.7870    1.8882    3.1602 H   0  0  0  0  0  0  0  0  0  0  0  0
   -1.7546    0.6477    3.7140 S   0  0  0  0  0  0  0  0  0  0  0  0
   -2.6074   -0.9232    3.5347 C   0  0  0  0  0  0  0  0  0  0  0  0
   -3.1707   -0.9037    2.7085 H   0  0  0  0  0  0  0  0  0  0  0  0
   -1.9360   -1.6610    3.4637 H   0  0  0  0  0  0  0  0  0  0  0  0
   -3.1905   -1.0785    4.3326 H   0  0  0  0  0  0  0  0  0  0  0  0
  1  5  1  0
  5  8  1  0
  1  2  1  0
  1  3  1  0
  1  4  1  0
  5  6  1  0
  5  7  1  0
  8  9  1  0
  8 10  1  0
  8 11  1  0
 12 16  1  0
 16 17  1  0
 12 13  1  0
 12 14  1  0
 12 15  1  0
 17 18  1  0
 17 19  1  0
 17 20  1  0
M  CHG  1   8   1
M  END
>  <PDB_ID>  (1214) 
pdb4njs

>  <RESIDUE_NAME>  (1214) 
LYS   MET

>  <FRAG_NAME>  (1214) 
ETAM   MSM

>  <FRAG_ATOM_NUM>  (1214) 
fragi: 11  fragj: 9

>  <atom.prop.CHAIN_ID>  (1214) 
A A A A A A A A A A A Z Z Z Z Z Z Z Z Z

>  <atom.prop.IS_HEAVY_ATOM>  (1214) 
1 0 0 0 1 0 0 1 0 0 0 1 0 0 0 1 1 0 0 0

>  <DIFUSE_FUNC_ATOM>  (1214) 
n/a

>  <FINAL_SINGLE_POINT_ENERGY>  (1214) 
0

>  <NONCOV_INTER_ENERGY_QM>  (1214) 
0

>  <FF_Energy>  (1214) 
-4.16

>  <QM_Energy>  (1214) 
-10.94

>  <source>  (1214) 
ETAM_MSM

>  <Index>  (1214) 
7599

$$$$
ETAM-pdb4nje-B-LYS-298:MSM-pdb4nje-B-MET-290
     RDKit          3D

 20 18  0  0  0  0  0  0  0  0999 V2000
    1.2415    0.8824    0.0000 C   0  0  0  0  0  0  0  0  0  0  0  0
    1.3597    1.2648    0.9100 H   0  0  0  0  0  0  0  0  0  0  0  0
    1.1160    1.6062   -0.6687 H   0  0  0  0  0  0  0  0  0  0  0  0
    2.1349    0.3144   -0.2599 H   0  0  0  0  0  0  0  0  0  0  0  0
    0.0000    0.0000    0.0000 C   0  0  0  0  0  0  0  0  0  0  0  0
    0.0147   -0.5785   -0.8164 H   0  0  0  0  0  0  0  0  0  0  0  0
    0.0139   -0.5793    0.8166 H   0  0  0  0  0  0  0  0  0  0  0  0
   -1.2415    0.8184    0.0000 N   0  0  0  0  0  4  0  0  0  0  0  0
   -1.1500    1.5607   -0.6631 H   0  0  0  0  0  0  0  0  0  0  0  0
   -2.0198    0.2416   -0.2484 H   0  0  0  0  0  0  0  0  0  0  0  0
   -1.3869    1.2011    0.9119 H   0  0  0  0  0  0  0  0  0  0  0  0
   -0.2861    5.9696    0.7964 C   0  0  0  0  0  0  0  0  0  0  0  0
   -0.4946    5.9907    1.8054 H   0  0  0  0  0  0  0  0  0  0  0  0
   -1.1919    6.1513    0.3385 H   0  0  0  0  0  0  0  0  0  0  0  0
    0.3786    6.8039    0.5724 H   0  0  0  0  0  0  0  0  0  0  0  0
    0.3590    4.3384    0.3116 S   0  0  0  0  0  0  0  0  0  0  0  0
    0.5696    4.4813   -1.4652 C   0  0  0  0  0  0  0  0  0  0  0  0
    1.3429    5.0843   -1.6622 H   0  0  0  0  0  0  0  0  0  0  0  0
    0.7450    3.5761   -1.8545 H   0  0  0  0  0  0  0  0  0  0  0  0
   -0.2613    4.8634   -1.8702 H   0  0  0  0  0  0  0  0  0  0  0  0
  1  5  1  0
  5  8  1  0
  1  2  1  0
  1  3  1  0
  1  4  1  0
  5  6  1  0
  5  7  1  0
  8  9  1  0
  8 10  1  0
  8 11  1  0
 12 16  1  0
 16 17  1  0
 12 13  1  0
 12 14  1  0
 12 15  1  0
 17 18  1  0
 17 19  1  0
 17 20  1  0
M  CHG  1   8   1
M  END
>  <PDB_ID>  (1215) 
pdb4nje

>  <RESIDUE_NAME>  (1215) 
LYS   MET

>  <FRAG_NAME>  (1215) 
ETAM   MSM

>  <FRAG_ATOM_NUM>  (1215) 
fragi: 11  fragj: 9

>  <atom.prop.CHAIN_ID>  (1215) 
A A A A A A A A A A A Z Z Z Z Z Z Z Z Z

>  <atom.prop.IS_HEAVY_ATOM>  (1215) 
1 0 0 0 1 0 0 1 0 0 0 1 0 0 0 1 1 0 0 0

>  <DIFUSE_FUNC_ATOM>  (1215) 
n/a

>  <FINAL_SINGLE_POINT_ENERGY>  (1215) 
0

>  <NONCOV_INTER_ENERGY_QM>  (1215) 
0

>  <FF_Energy>  (1215) 
-4.32

>  <QM_Energy>  (1215) 
-9.82

>  <source>  (1215) 
ETAM_MSM

>  <Index>  (1215) 
7602

$$$$
ETAM-pdb3pn7-C-LYS-2:MSM-pdb3pn7-C-MET-76
     RDKit          3D

 20 18  0  0  0  0  0  0  0  0999 V2000
    1.2308    0.8899   -0.0000 C   0  0  0  0  0  0  0  0  0  0  0  0
    1.3111    1.3184    0.8959 H   0  0  0  0  0  0  0  0  0  0  0  0
    1.1180    1.5852   -0.7040 H   0  0  0  0  0  0  0  0  0  0  0  0
    2.1371    0.3196   -0.2040 H   0  0  0  0  0  0  0  0  0  0  0  0
    0.0000    0.0000    0.0000 C   0  0  0  0  0  0  0  0  0  0  0  0
    0.0103   -0.5699   -0.8161 H   0  0  0  0  0  0  0  0  0  0  0  0
    0.0101   -0.5702    0.8165 H   0  0  0  0  0  0  0  0  0  0  0  0
   -1.2308    0.8381    0.0000 N   0  0  0  0  0  4  0  0  0  0  0  0
   -1.4431    1.1141    0.9368 H   0  0  0  0  0  0  0  0  0  0  0  0
   -1.0782    1.6499   -0.5627 H   0  0  0  0  0  0  0  0  0  0  0  0
   -1.9917    0.3094   -0.3741 H   0  0  0  0  0  0  0  0  0  0  0  0
   -1.6233    4.8800   -3.6196 C   0  0  0  0  0  0  0  0  0  0  0  0
   -2.1786    4.1717   -4.0464 H   0  0  0  0  0  0  0  0  0  0  0  0
   -1.5224    5.6544   -4.2385 H   0  0  0  0  0  0  0  0  0  0  0  0
   -2.0836    5.2038   -2.6862 H   0  0  0  0  0  0  0  0  0  0  0  0
   -0.0132    4.2271   -3.1571 S   0  0  0  0  0  0  0  0  0  0  0  0
   -0.4545    3.3166   -1.6714 C   0  0  0  0  0  0  0  0  0  0  0  0
   -0.9284    3.9263   -1.0361 H   0  0  0  0  0  0  0  0  0  0  0  0
   -1.0554    2.5555   -1.9145 H   0  0  0  0  0  0  0  0  0  0  0  0
    0.3756    2.9631   -1.2392 H   0  0  0  0  0  0  0  0  0  0  0  0
  1  5  1  0
  5  8  1  0
  1  2  1  0
  1  3  1  0
  1  4  1  0
  5  6  1  0
  5  7  1  0
  8  9  1  0
  8 10  1  0
  8 11  1  0
 12 16  1  0
 16 17  1  0
 12 13  1  0
 12 14  1  0
 12 15  1  0
 17 18  1  0
 17 19  1  0
 17 20  1  0
M  CHG  1   8   1
M  END
>  <PDB_ID>  (1216) 
pdb3pn7

>  <RESIDUE_NAME>  (1216) 
LYS   MET

>  <FRAG_NAME>  (1216) 
ETAM   MSM

>  <FRAG_ATOM_NUM>  (1216) 
fragi: 11  fragj: 9

>  <atom.prop.CHAIN_ID>  (1216) 
A A A A A A A A A A A Z Z Z Z Z Z Z Z Z

>  <atom.prop.IS_HEAVY_ATOM>  (1216) 
1 0 0 0 1 0 0 1 0 0 0 1 0 0 0 1 1 0 0 0

>  <DIFUSE_FUNC_ATOM>  (1216) 
n/a

>  <FINAL_SINGLE_POINT_ENERGY>  (1216) 
0

>  <NONCOV_INTER_ENERGY_QM>  (1216) 
0

>  <FF_Energy>  (1216) 
11.79

>  <QM_Energy>  (1216) 
3.08

>  <source>  (1216) 
ETAM_MSM

>  <Index>  (1216) 
7606

$$$$
ETAM-pdb3pn7-F-LYS-2:MSM-pdb3pn7-F-MET-76
     RDKit          3D

 20 18  0  0  0  0  0  0  0  0999 V2000
    1.2464    0.8677   -0.0000 C   0  0  0  0  0  0  0  0  0  0  0  0
    2.0453    0.2763   -0.0279 H   0  0  0  0  0  0  0  0  0  0  0  0
    1.2503    1.4181    0.8281 H   0  0  0  0  0  0  0  0  0  0  0  0
    1.2676    1.5304   -0.8652 H   0  0  0  0  0  0  0  0  0  0  0  0
    0.0000    0.0000    0.0000 C   0  0  0  0  0  0  0  0  0  0  0  0
    0.0081   -0.5831   -0.8163 H   0  0  0  0  0  0  0  0  0  0  0  0
    0.0073   -0.5839    0.8161 H   0  0  0  0  0  0  0  0  0  0  0  0
   -1.2464    0.8195    0.0000 N   0  0  0  0  0  4  0  0  0  0  0  0
   -1.4323    1.1372   -0.9289 H   0  0  0  0  0  0  0  0  0  0  0  0
   -2.0087    0.2605    0.3234 H   0  0  0  0  0  0  0  0  0  0  0  0
   -1.1249    1.6046    0.6056 H   0  0  0  0  0  0  0  0  0  0  0  0
   -2.2760   -1.9763   -4.7010 C   0  0  0  0  0  0  0  0  0  0  0  0
   -2.2487   -2.7863   -5.3298 H   0  0  0  0  0  0  0  0  0  0  0  0
   -2.8706   -1.2856   -5.1700 H   0  0  0  0  0  0  0  0  0  0  0  0
   -2.7563   -2.2747   -3.7692 H   0  0  0  0  0  0  0  0  0  0  0  0
   -0.6169   -1.3162   -4.4426 S   0  0  0  0  0  0  0  0  0  0  0  0
   -0.9563   -0.0847   -3.1897 C   0  0  0  0  0  0  0  0  0  0  0  0
   -1.8955    0.2482   -3.2904 H   0  0  0  0  0  0  0  0  0  0  0  0
   -0.8436   -0.4895   -2.2803 H   0  0  0  0  0  0  0  0  0  0  0  0
   -0.3213    0.6829   -3.2912 H   0  0  0  0  0  0  0  0  0  0  0  0
  1  5  1  0
  5  8  1  0
  1  2  1  0
  1  3  1  0
  1  4  1  0
  5  6  1  0
  5  7  1  0
  8  9  1  0
  8 10  1  0
  8 11  1  0
 12 16  1  0
 16 17  1  0
 12 13  1  0
 12 14  1  0
 12 15  1  0
 17 18  1  0
 17 19  1  0
 17 20  1  0
M  CHG  1   8   1
M  END
>  <PDB_ID>  (1217) 
pdb3pn7

>  <RESIDUE_NAME>  (1217) 
LYS   MET

>  <FRAG_NAME>  (1217) 
ETAM   MSM

>  <FRAG_ATOM_NUM>  (1217) 
fragi: 11  fragj: 9

>  <atom.prop.CHAIN_ID>  (1217) 
A A A A A A A A A A A Z Z Z Z Z Z Z Z Z

>  <atom.prop.IS_HEAVY_ATOM>  (1217) 
1 0 0 0 1 0 0 1 0 0 0 1 0 0 0 1 1 0 0 0

>  <DIFUSE_FUNC_ATOM>  (1217) 
n/a

>  <FINAL_SINGLE_POINT_ENERGY>  (1217) 
0

>  <NONCOV_INTER_ENERGY_QM>  (1217) 
0

>  <FF_Energy>  (1217) 
9.26

>  <QM_Energy>  (1217) 
1.15

>  <source>  (1217) 
ETAM_MSM

>  <Index>  (1217) 
7607

$$$$
ETAM-pdb4njs-B-LYS-20:MSM-pdb4njs-B-MET-36
     RDKit          3D

 20 18  0  0  0  0  0  0  0  0999 V2000
    1.2435    0.8665   -0.0000 C   0  0  0  0  0  0  0  0  0  0  0  0
    2.0314    0.2793    0.0999 H   0  0  0  0  0  0  0  0  0  0  0  0
    1.1737    1.5097    0.7458 H   0  0  0  0  0  0  0  0  0  0  0  0
    1.2968    1.4009   -0.9484 H   0  0  0  0  0  0  0  0  0  0  0  0
    0.0000    0.0000    0.0000 C   0  0  0  0  0  0  0  0  0  0  0  0
    0.0154   -0.5901   -0.8159 H   0  0  0  0  0  0  0  0  0  0  0  0
    0.0151   -0.5903    0.8166 H   0  0  0  0  0  0  0  0  0  0  0  0
   -1.2435    0.8012   -0.0000 N   0  0  0  0  0  4  0  0  0  0  0  0
   -1.0380    1.7401   -0.2795 H   0  0  0  0  0  0  0  0  0  0  0  0
   -1.9014    0.4014   -0.6400 H   0  0  0  0  0  0  0  0  0  0  0  0
   -1.6389    0.8081    0.9199 H   0  0  0  0  0  0  0  0  0  0  0  0
   -0.7484   -1.5375    2.9639 C   0  0  0  0  0  0  0  0  0  0  0  0
   -1.2593   -1.4506    2.1056 H   0  0  0  0  0  0  0  0  0  0  0  0
   -0.6587   -0.6315    3.3835 H   0  0  0  0  0  0  0  0  0  0  0  0
   -1.2566   -2.2238    3.6413 H   0  0  0  0  0  0  0  0  0  0  0  0
    0.8539   -2.2518    2.6682 S   0  0  0  0  0  0  0  0  0  0  0  0
    0.4225   -3.5309    1.4773 C   0  0  0  0  0  0  0  0  0  0  0  0
    0.3159   -3.1191    0.5734 H   0  0  0  0  0  0  0  0  0  0  0  0
    1.1498   -4.2164    1.4499 H   0  0  0  0  0  0  0  0  0  0  0  0
   -0.4355   -3.9637    1.7515 H   0  0  0  0  0  0  0  0  0  0  0  0
  1  5  1  0
  5  8  1  0
  1  2  1  0
  1  3  1  0
  1  4  1  0
  5  6  1  0
  5  7  1  0
  8  9  1  0
  8 10  1  0
  8 11  1  0
 12 16  1  0
 16 17  1  0
 12 13  1  0
 12 14  1  0
 12 15  1  0
 17 18  1  0
 17 19  1  0
 17 20  1  0
M  CHG  1   8   1
M  END
>  <PDB_ID>  (1218) 
pdb4njs

>  <RESIDUE_NAME>  (1218) 
LYS   MET

>  <FRAG_NAME>  (1218) 
ETAM   MSM

>  <FRAG_ATOM_NUM>  (1218) 
fragi: 11  fragj: 9

>  <atom.prop.CHAIN_ID>  (1218) 
A A A A A A A A A A A Z Z Z Z Z Z Z Z Z

>  <atom.prop.IS_HEAVY_ATOM>  (1218) 
1 0 0 0 1 0 0 1 0 0 0 1 0 0 0 1 1 0 0 0

>  <DIFUSE_FUNC_ATOM>  (1218) 
n/a

>  <FINAL_SINGLE_POINT_ENERGY>  (1218) 
0

>  <NONCOV_INTER_ENERGY_QM>  (1218) 
0

>  <FF_Energy>  (1218) 
2.13

>  <QM_Energy>  (1218) 
-3.61

>  <source>  (1218) 
ETAM_MSM

>  <Index>  (1218) 
7609

$$$$
ETAM-pdb3pnl-B-LYS-66:MSM-pdb3pnl-B-MET-70
     RDKit          3D

 20 18  0  0  0  0  0  0  0  0999 V2000
    1.2681    0.8500   -0.0000 C   0  0  0  0  0  0  0  0  0  0  0  0
    1.1697    1.5518   -0.6927 H   0  0  0  0  0  0  0  0  0  0  0  0
    2.0370    0.2578   -0.2019 H   0  0  0  0  0  0  0  0  0  0  0  0
    1.4086    1.3159    0.9753 H   0  0  0  0  0  0  0  0  0  0  0  0
    0.0000    0.0000    0.0000 C   0  0  0  0  0  0  0  0  0  0  0  0
    0.0012   -0.5893   -0.8163 H   0  0  0  0  0  0  0  0  0  0  0  0
    0.0002   -0.5891    0.8166 H   0  0  0  0  0  0  0  0  0  0  0  0
   -1.2681    0.8203   -0.0000 N   0  0  0  0  0  4  0  0  0  0  0  0
   -1.9561    0.3473   -0.5431 H   0  0  0  0  0  0  0  0  0  0  0  0
   -1.5831    0.9231    0.9389 H   0  0  0  0  0  0  0  0  0  0  0  0
   -1.0723    1.7133   -0.3962 H   0  0  0  0  0  0  0  0  0  0  0  0
    1.5539    4.7221   -2.6741 C   0  0  0  0  0  0  0  0  0  0  0  0
    1.2476    4.9743   -3.6302 H   0  0  0  0  0  0  0  0  0  0  0  0
    2.1586    3.8935   -2.8136 H   0  0  0  0  0  0  0  0  0  0  0  0
    2.1650    5.5346   -2.2811 H   0  0  0  0  0  0  0  0  0  0  0  0
    0.1206    4.2873   -1.6504 S   0  0  0  0  0  0  0  0  0  0  0  0
   -0.3686    5.8523   -0.8685 C   0  0  0  0  0  0  0  0  0  0  0  0
   -1.3209    5.7855   -0.5797 H   0  0  0  0  0  0  0  0  0  0  0  0
    0.2172    6.0159   -0.0785 H   0  0  0  0  0  0  0  0  0  0  0  0
   -0.2636    6.5909   -1.5299 H   0  0  0  0  0  0  0  0  0  0  0  0
  1  5  1  0
  5  8  1  0
  1  2  1  0
  1  3  1  0
  1  4  1  0
  5  6  1  0
  5  7  1  0
  8  9  1  0
  8 10  1  0
  8 11  1  0
 12 16  1  0
 16 17  1  0
 12 13  1  0
 12 14  1  0
 12 15  1  0
 17 18  1  0
 17 19  1  0
 17 20  1  0
M  CHG  1   8   1
M  END
>  <PDB_ID>  (1219) 
pdb3pnl

>  <RESIDUE_NAME>  (1219) 
LYS   MET

>  <FRAG_NAME>  (1219) 
ETAM   MSM

>  <FRAG_ATOM_NUM>  (1219) 
fragi: 11  fragj: 9

>  <atom.prop.CHAIN_ID>  (1219) 
A A A A A A A A A A A Z Z Z Z Z Z Z Z Z

>  <atom.prop.IS_HEAVY_ATOM>  (1219) 
1 0 0 0 1 0 0 1 0 0 0 1 0 0 0 1 1 0 0 0

>  <DIFUSE_FUNC_ATOM>  (1219) 
n/a

>  <FINAL_SINGLE_POINT_ENERGY>  (1219) 
0

>  <NONCOV_INTER_ENERGY_QM>  (1219) 
0

>  <FF_Energy>  (1219) 
-4.77

>  <QM_Energy>  (1219) 
-10.8

>  <source>  (1219) 
ETAM_MSM

>  <Index>  (1219) 
7610

$$$$
ETAM-pdb4nf2-B-LYS-243:MSM-pdb4nf2-B-MET-233
     RDKit          3D

 20 18  0  0  0  0  0  0  0  0999 V2000
    1.2709    0.8035   -0.0000 C   0  0  0  0  0  0  0  0  0  0  0  0
    1.3017    1.3828    0.8034 H   0  0  0  0  0  0  0  0  0  0  0  0
    1.3277    1.3418   -0.8289 H   0  0  0  0  0  0  0  0  0  0  0  0
    2.1456    0.1537    0.0305 H   0  0  0  0  0  0  0  0  0  0  0  0
    0.0000    0.0000    0.0000 C   0  0  0  0  0  0  0  0  0  0  0  0
   -0.0142   -0.6073   -0.8158 H   0  0  0  0  0  0  0  0  0  0  0  0
   -0.0146   -0.6078    0.8160 H   0  0  0  0  0  0  0  0  0  0  0  0
   -1.2709    0.8121   -0.0000 N   0  0  0  0  0  4  0  0  0  0  0  0
   -1.9755    0.3071   -0.4910 H   0  0  0  0  0  0  0  0  0  0  0  0
   -1.5534    0.9665    0.9425 H   0  0  0  0  0  0  0  0  0  0  0  0
   -1.0960    1.6833   -0.4522 H   0  0  0  0  0  0  0  0  0  0  0  0
   -0.5098    5.1552   -2.6103 C   0  0  0  0  0  0  0  0  0  0  0  0
    0.1440    5.8999   -2.9235 H   0  0  0  0  0  0  0  0  0  0  0  0
   -1.3925    5.6702   -2.4220 H   0  0  0  0  0  0  0  0  0  0  0  0
   -0.6901    4.5029   -3.4647 H   0  0  0  0  0  0  0  0  0  0  0  0
    0.1068    4.3607   -1.0822 S   0  0  0  0  0  0  0  0  0  0  0  0
    1.8197    4.2650   -1.5696 C   0  0  0  0  0  0  0  0  0  0  0  0
    2.0370    5.0158   -2.1978 H   0  0  0  0  0  0  0  0  0  0  0  0
    2.4071    4.3331   -0.7610 H   0  0  0  0  0  0  0  0  0  0  0  0
    1.9937    3.3912   -2.0295 H   0  0  0  0  0  0  0  0  0  0  0  0
  1  5  1  0
  5  8  1  0
  1  2  1  0
  1  3  1  0
  1  4  1  0
  5  6  1  0
  5  7  1  0
  8  9  1  0
  8 10  1  0
  8 11  1  0
 12 16  1  0
 16 17  1  0
 12 13  1  0
 12 14  1  0
 12 15  1  0
 17 18  1  0
 17 19  1  0
 17 20  1  0
M  CHG  1   8   1
M  END
>  <PDB_ID>  (1220) 
pdb4nf2

>  <RESIDUE_NAME>  (1220) 
LYS   MET

>  <FRAG_NAME>  (1220) 
ETAM   MSM

>  <FRAG_ATOM_NUM>  (1220) 
fragi: 11  fragj: 9

>  <atom.prop.CHAIN_ID>  (1220) 
A A A A A A A A A A A Z Z Z Z Z Z Z Z Z

>  <atom.prop.IS_HEAVY_ATOM>  (1220) 
1 0 0 0 1 0 0 1 0 0 0 1 0 0 0 1 1 0 0 0

>  <DIFUSE_FUNC_ATOM>  (1220) 
n/a

>  <FINAL_SINGLE_POINT_ENERGY>  (1220) 
0

>  <NONCOV_INTER_ENERGY_QM>  (1220) 
0

>  <FF_Energy>  (1220) 
-5.0

>  <QM_Energy>  (1220) 
-11.92

>  <source>  (1220) 
ETAM_MSM

>  <Index>  (1220) 
7612

$$$$
ETAM-pdb3pnl-A-LYS-104:MSM-pdb3pnl-A-MET-59
     RDKit          3D

 20 18  0  0  0  0  0  0  0  0999 V2000
    1.2715    0.8723    0.0000 C   0  0  0  0  0  0  0  0  0  0  0  0
    2.0375    0.3077   -0.3049 H   0  0  0  0  0  0  0  0  0  0  0  0
    1.4355    1.1841    0.9346 H   0  0  0  0  0  0  0  0  0  0  0  0
    1.2008    1.7435   -0.6513 H   0  0  0  0  0  0  0  0  0  0  0  0
    0.0000    0.0000    0.0000 C   0  0  0  0  0  0  0  0  0  0  0  0
    0.0481   -0.6141   -0.8161 H   0  0  0  0  0  0  0  0  0  0  0  0
    0.0484   -0.6145    0.8163 H   0  0  0  0  0  0  0  0  0  0  0  0
   -1.2715    0.7210    0.0000 N   0  0  0  0  0  4  0  0  0  0  0  0
   -1.6336    0.7814   -0.9349 H   0  0  0  0  0  0  0  0  0  0  0  0
   -1.9393    0.2425    0.5771 H   0  0  0  0  0  0  0  0  0  0  0  0
   -1.1412    1.6501    0.3583 H   0  0  0  0  0  0  0  0  0  0  0  0
    0.1911    1.3877    5.4110 C   0  0  0  0  0  0  0  0  0  0  0  0
   -0.6785    1.5834    4.8880 H   0  0  0  0  0  0  0  0  0  0  0  0
    0.4179    2.2825    5.8765 H   0  0  0  0  0  0  0  0  0  0  0  0
   -0.0056    0.6269    6.1663 H   0  0  0  0  0  0  0  0  0  0  0  0
    1.5088    0.9325    4.2719 S   0  0  0  0  0  0  0  0  0  0  0  0
    0.6613   -0.4066    3.3612 C   0  0  0  0  0  0  0  0  0  0  0  0
   -0.2481   -0.5269    3.7466 H   0  0  0  0  0  0  0  0  0  0  0  0
    0.5995   -0.1481    2.4025 H   0  0  0  0  0  0  0  0  0  0  0  0
    1.1911   -1.2433    3.4604 H   0  0  0  0  0  0  0  0  0  0  0  0
  1  5  1  0
  5  8  1  0
  1  2  1  0
  1  3  1  0
  1  4  1  0
  5  6  1  0
  5  7  1  0
  8  9  1  0
  8 10  1  0
  8 11  1  0
 12 16  1  0
 16 17  1  0
 12 13  1  0
 12 14  1  0
 12 15  1  0
 17 18  1  0
 17 19  1  0
 17 20  1  0
M  CHG  1   8   1
M  END
>  <PDB_ID>  (1221) 
pdb3pnl

>  <RESIDUE_NAME>  (1221) 
LYS   MET

>  <FRAG_NAME>  (1221) 
ETAM   MSM

>  <FRAG_ATOM_NUM>  (1221) 
fragi: 11  fragj: 9

>  <atom.prop.CHAIN_ID>  (1221) 
A A A A A A A A A A A Z Z Z Z Z Z Z Z Z

>  <atom.prop.IS_HEAVY_ATOM>  (1221) 
1 0 0 0 1 0 0 1 0 0 0 1 0 0 0 1 1 0 0 0

>  <DIFUSE_FUNC_ATOM>  (1221) 
n/a

>  <FINAL_SINGLE_POINT_ENERGY>  (1221) 
0

>  <NONCOV_INTER_ENERGY_QM>  (1221) 
0

>  <FF_Energy>  (1221) 
6.0

>  <QM_Energy>  (1221) 
0.41

>  <source>  (1221) 
ETAM_MSM

>  <Index>  (1221) 
7615

$$$$
ETAM-pdb3pqd-D-LYS-228:MSM-pdb3pqd-A-MET-44
     RDKit          3D

 20 18  0  0  0  0  0  0  0  0999 V2000
    1.2645    0.8587    0.0000 C   0  0  0  0  0  0  0  0  0  0  0  0
    1.2067    1.5054   -0.7580 H   0  0  0  0  0  0  0  0  0  0  0  0
    2.0519    0.2586   -0.1267 H   0  0  0  0  0  0  0  0  0  0  0  0
    1.3926    1.4165    0.9276 H   0  0  0  0  0  0  0  0  0  0  0  0
    0.0000    0.0000    0.0000 C   0  0  0  0  0  0  0  0  0  0  0  0
    0.0180   -0.5979   -0.8161 H   0  0  0  0  0  0  0  0  0  0  0  0
    0.0174   -0.5979    0.8159 H   0  0  0  0  0  0  0  0  0  0  0  0
   -1.2645    0.7853   -0.0000 N   0  0  0  0  0  4  0  0  0  0  0  0
   -1.1712    1.5626   -0.6214 H   0  0  0  0  0  0  0  0  0  0  0  0
   -2.0172    0.2018   -0.3033 H   0  0  0  0  0  0  0  0  0  0  0  0
   -1.4491    1.1155    0.9250 H   0  0  0  0  0  0  0  0  0  0  0  0
    0.4629   -3.1836    1.4371 C   0  0  0  0  0  0  0  0  0  0  0  0
    0.8380   -3.1469    2.3841 H   0  0  0  0  0  0  0  0  0  0  0  0
    0.7601   -2.3248    0.9762 H   0  0  0  0  0  0  0  0  0  0  0  0
    0.9058   -4.0332    0.9174 H   0  0  0  0  0  0  0  0  0  0  0  0
   -1.3482   -3.2921    1.4737 S   0  0  0  0  0  0  0  0  0  0  0  0
   -1.7812   -1.7681    2.3142 C   0  0  0  0  0  0  0  0  0  0  0  0
   -1.5191   -1.8308    3.2776 H   0  0  0  0  0  0  0  0  0  0  0  0
   -1.2990   -1.0017    1.8876 H   0  0  0  0  0  0  0  0  0  0  0  0
   -2.7683   -1.6180    2.2470 H   0  0  0  0  0  0  0  0  0  0  0  0
  1  5  1  0
  5  8  1  0
  1  2  1  0
  1  3  1  0
  1  4  1  0
  5  6  1  0
  5  7  1  0
  8  9  1  0
  8 10  1  0
  8 11  1  0
 12 16  1  0
 16 17  1  0
 12 13  1  0
 12 14  1  0
 12 15  1  0
 17 18  1  0
 17 19  1  0
 17 20  1  0
M  CHG  1   8   1
M  END
>  <PDB_ID>  (1222) 
pdb3pqd

>  <RESIDUE_NAME>  (1222) 
LYS   MET

>  <FRAG_NAME>  (1222) 
ETAM   MSM

>  <FRAG_ATOM_NUM>  (1222) 
fragi: 11  fragj: 9

>  <atom.prop.CHAIN_ID>  (1222) 
A A A A A A A A A A A Z Z Z Z Z Z Z Z Z

>  <atom.prop.IS_HEAVY_ATOM>  (1222) 
1 0 0 0 1 0 0 1 0 0 0 1 0 0 0 1 1 0 0 0

>  <DIFUSE_FUNC_ATOM>  (1222) 
n/a

>  <FINAL_SINGLE_POINT_ENERGY>  (1222) 
0

>  <NONCOV_INTER_ENERGY_QM>  (1222) 
0

>  <FF_Energy>  (1222) 
8.11

>  <QM_Energy>  (1222) 
0.94

>  <source>  (1222) 
ETAM_MSM

>  <Index>  (1222) 
7625

$$$$
ETAM-pdb3pqd-F-LYS-228:MSM-pdb3pqd-G-MET-44
     RDKit          3D

 20 18  0  0  0  0  0  0  0  0999 V2000
    1.2656    0.8512   -0.0000 C   0  0  0  0  0  0  0  0  0  0  0  0
    1.0752    1.6960   -0.4895 H   0  0  0  0  0  0  0  0  0  0  0  0
    1.9867    0.3415   -0.4574 H   0  0  0  0  0  0  0  0  0  0  0  0
    1.5856    1.0913    1.0140 H   0  0  0  0  0  0  0  0  0  0  0  0
    0.0000    0.0000    0.0000 C   0  0  0  0  0  0  0  0  0  0  0  0
    0.0177   -0.6032   -0.8165 H   0  0  0  0  0  0  0  0  0  0  0  0
    0.0178   -0.6030    0.8167 H   0  0  0  0  0  0  0  0  0  0  0  0
   -1.2656    0.7779    0.0000 N   0  0  0  0  0  4  0  0  0  0  0  0
   -1.9774    0.2551    0.4685 H   0  0  0  0  0  0  0  0  0  0  0  0
   -1.1223    1.6462    0.4744 H   0  0  0  0  0  0  0  0  0  0  0  0
   -1.5478    0.9552   -0.9428 H   0  0  0  0  0  0  0  0  0  0  0  0
    0.1976   -2.0624   -2.9977 C   0  0  0  0  0  0  0  0  0  0  0  0
    0.4411   -1.0773   -3.1437 H   0  0  0  0  0  0  0  0  0  0  0  0
   -0.0029   -2.4364   -3.9317 H   0  0  0  0  0  0  0  0  0  0  0  0
    1.0730   -2.5773   -2.6017 H   0  0  0  0  0  0  0  0  0  0  0  0
   -1.2606   -2.2068   -1.9259 S   0  0  0  0  0  0  0  0  0  0  0  0
   -1.0906   -3.9005   -1.3785 C   0  0  0  0  0  0  0  0  0  0  0  0
   -1.9286   -4.1908   -0.9130 H   0  0  0  0  0  0  0  0  0  0  0  0
   -0.9282   -4.4958   -2.1676 H   0  0  0  0  0  0  0  0  0  0  0  0
   -0.3179   -3.9741   -0.7447 H   0  0  0  0  0  0  0  0  0  0  0  0
  1  5  1  0
  5  8  1  0
  1  2  1  0
  1  3  1  0
  1  4  1  0
  5  6  1  0
  5  7  1  0
  8  9  1  0
  8 10  1  0
  8 11  1  0
 12 16  1  0
 16 17  1  0
 12 13  1  0
 12 14  1  0
 12 15  1  0
 17 18  1  0
 17 19  1  0
 17 20  1  0
M  CHG  1   8   1
M  END
>  <PDB_ID>  (1223) 
pdb3pqd

>  <RESIDUE_NAME>  (1223) 
LYS   MET

>  <FRAG_NAME>  (1223) 
ETAM   MSM

>  <FRAG_ATOM_NUM>  (1223) 
fragi: 11  fragj: 9

>  <atom.prop.CHAIN_ID>  (1223) 
A A A A A A A A A A A Z Z Z Z Z Z Z Z Z

>  <atom.prop.IS_HEAVY_ATOM>  (1223) 
1 0 0 0 1 0 0 1 0 0 0 1 0 0 0 1 1 0 0 0

>  <DIFUSE_FUNC_ATOM>  (1223) 
n/a

>  <FINAL_SINGLE_POINT_ENERGY>  (1223) 
0

>  <NONCOV_INTER_ENERGY_QM>  (1223) 
0

>  <FF_Energy>  (1223) 
3.36

>  <QM_Energy>  (1223) 
-7.23

>  <source>  (1223) 
ETAM_MSM

>  <Index>  (1223) 
7630

$$$$
ETAM-pdb3pqd-E-LYS-228:MSM-pdb3pqd-H-MET-48
     RDKit          3D

 20 18  0  0  0  0  0  0  0  0999 V2000
    1.2469    0.8715    0.0000 C   0  0  0  0  0  0  0  0  0  0  0  0
    1.2063    1.4816   -0.7856 H   0  0  0  0  0  0  0  0  0  0  0  0
    2.0453    0.2809   -0.0644 H   0  0  0  0  0  0  0  0  0  0  0  0
    1.3211    1.4698    0.9081 H   0  0  0  0  0  0  0  0  0  0  0  0
    0.0000    0.0000    0.0000 C   0  0  0  0  0  0  0  0  0  0  0  0
    0.0125   -0.5843   -0.8157 H   0  0  0  0  0  0  0  0  0  0  0  0
    0.0126   -0.5849    0.8160 H   0  0  0  0  0  0  0  0  0  0  0  0
   -1.2469    0.8127   -0.0000 N   0  0  0  0  0  4  0  0  0  0  0  0
   -2.0368    0.2080    0.0983 H   0  0  0  0  0  0  0  0  0  0  0  0
   -1.2218    1.4575    0.7634 H   0  0  0  0  0  0  0  0  0  0  0  0
   -1.3152    1.3152   -0.8616 H   0  0  0  0  0  0  0  0  0  0  0  0
    0.7647    0.9713   -5.6862 C   0  0  0  0  0  0  0  0  0  0  0  0
    0.1878    0.5774   -6.4403 H   0  0  0  0  0  0  0  0  0  0  0  0
    1.5677    0.3354   -5.6004 H   0  0  0  0  0  0  0  0  0  0  0  0
    1.1325    1.9448   -6.0104 H   0  0  0  0  0  0  0  0  0  0  0  0
   -0.1673    1.0351   -4.1368 S   0  0  0  0  0  0  0  0  0  0  0  0
    1.0537    1.7721   -3.0661 C   0  0  0  0  0  0  0  0  0  0  0  0
    1.9547    1.7355   -3.5029 H   0  0  0  0  0  0  0  0  0  0  0  0
    0.8141    2.7289   -2.8856 H   0  0  0  0  0  0  0  0  0  0  0  0
    1.0894    1.2725   -2.1974 H   0  0  0  0  0  0  0  0  0  0  0  0
  1  5  1  0
  5  8  1  0
  1  2  1  0
  1  3  1  0
  1  4  1  0
  5  6  1  0
  5  7  1  0
  8  9  1  0
  8 10  1  0
  8 11  1  0
 12 16  1  0
 16 17  1  0
 12 13  1  0
 12 14  1  0
 12 15  1  0
 17 18  1  0
 17 19  1  0
 17 20  1  0
M  CHG  1   8   1
M  END
>  <PDB_ID>  (1224) 
pdb3pqd

>  <RESIDUE_NAME>  (1224) 
LYS   MET

>  <FRAG_NAME>  (1224) 
ETAM   MSM

>  <FRAG_ATOM_NUM>  (1224) 
fragi: 11  fragj: 9

>  <atom.prop.CHAIN_ID>  (1224) 
A A A A A A A A A A A Z Z Z Z Z Z Z Z Z

>  <atom.prop.IS_HEAVY_ATOM>  (1224) 
1 0 0 0 1 0 0 1 0 0 0 1 0 0 0 1 1 0 0 0

>  <DIFUSE_FUNC_ATOM>  (1224) 
n/a

>  <FINAL_SINGLE_POINT_ENERGY>  (1224) 
0

>  <NONCOV_INTER_ENERGY_QM>  (1224) 
0

>  <FF_Energy>  (1224) 
48.89

>  <QM_Energy>  (1224) 
3.02

>  <source>  (1224) 
ETAM_MSM

>  <Index>  (1224) 
7631

$$$$
ETAM-pdb3pr3-A-LYS-487:MSM-pdb3pr3-A-MET-479
     RDKit          3D

 20 18  0  0  0  0  0  0  0  0999 V2000
    1.2332    0.8546    0.0000 C   0  0  0  0  0  0  0  0  0  0  0  0
    1.2204    1.5188    0.8773 H   0  0  0  0  0  0  0  0  0  0  0  0
    1.2345    1.4981   -0.8918 H   0  0  0  0  0  0  0  0  0  0  0  0
    2.1398    0.2496    0.0141 H   0  0  0  0  0  0  0  0  0  0  0  0
    0.0000    0.0000    0.0000 C   0  0  0  0  0  0  0  0  0  0  0  0
    0.0052   -0.6542   -0.8846 H   0  0  0  0  0  0  0  0  0  0  0  0
    0.0047   -0.6547    0.8841 H   0  0  0  0  0  0  0  0  0  0  0  0
   -1.2332    0.8275    0.0000 N   0  0  0  0  0  4  0  0  0  0  0  0
   -1.9973    0.2881    0.3531 H   0  0  0  0  0  0  0  0  0  0  0  0
   -1.0965    1.6299    0.5798 H   0  0  0  0  0  0  0  0  0  0  0  0
   -1.4375    1.1220   -0.9333 H   0  0  0  0  0  0  0  0  0  0  0  0
   -1.7942    0.9893    4.5411 C   0  0  0  0  0  0  0  0  0  0  0  0
   -1.5534    1.0134    5.6141 H   0  0  0  0  0  0  0  0  0  0  0  0
   -2.5661    0.2185    4.4020 H   0  0  0  0  0  0  0  0  0  0  0  0
   -2.1904    1.9580    4.2364 H   0  0  0  0  0  0  0  0  0  0  0  0
   -0.2963    0.5318    3.5897 S   0  0  0  0  0  0  0  0  0  0  0  0
   -0.2723   -1.2291    3.8327 C   0  0  0  0  0  0  0  0  0  0  0  0
    0.5931   -1.6603    3.3075 H   0  0  0  0  0  0  0  0  0  0  0  0
   -0.1967   -1.4507    4.9076 H   0  0  0  0  0  0  0  0  0  0  0  0
   -1.1987   -1.6676    3.4335 H   0  0  0  0  0  0  0  0  0  0  0  0
  1  5  1  0
  5  8  1  0
  1  2  1  0
  1  3  1  0
  1  4  1  0
  5  6  1  0
  5  7  1  0
  8  9  1  0
  8 10  1  0
  8 11  1  0
 12 16  1  0
 16 17  1  0
 12 13  1  0
 12 14  1  0
 12 15  1  0
 17 18  1  0
 17 19  1  0
 17 20  1  0
M  CHG  1   8   1
M  END
>  <PDB_ID>  (1225) 
pdb3pr3

>  <RESIDUE_NAME>  (1225) 
LYS   MET

>  <FRAG_NAME>  (1225) 
ETAM   MSM

>  <FRAG_ATOM_NUM>  (1225) 
fragi: 11  fragj: 9

>  <atom.prop.CHAIN_ID>  (1225) 
A A A A A A A A A A A Z Z Z Z Z Z Z Z Z

>  <atom.prop.IS_HEAVY_ATOM>  (1225) 
1 0 0 0 1 0 0 1 0 0 0 1 0 0 0 1 1 0 0 0

>  <DIFUSE_FUNC_ATOM>  (1225) 
n/a

>  <FINAL_SINGLE_POINT_ENERGY>  (1225) 
0

>  <NONCOV_INTER_ENERGY_QM>  (1225) 
0

>  <FF_Energy>  (1225) 
-4.86

>  <QM_Energy>  (1225) 
-11.27

>  <source>  (1225) 
ETAM_MSM

>  <Index>  (1225) 
7632

$$$$
ETAM-pdb3pr3-B-LYS-487:MSM-pdb3pr3-B-MET-479
     RDKit          3D

 20 18  0  0  0  0  0  0  0  0999 V2000
    1.2400    0.8481   -0.0000 C   0  0  0  0  0  0  0  0  0  0  0  0
    1.2304    1.5149    0.8749 H   0  0  0  0  0  0  0  0  0  0  0  0
    1.2470    1.4906   -0.8932 H   0  0  0  0  0  0  0  0  0  0  0  0
    2.1417    0.2361    0.0171 H   0  0  0  0  0  0  0  0  0  0  0  0
    0.0000    0.0000    0.0000 C   0  0  0  0  0  0  0  0  0  0  0  0
    0.0046   -0.6542   -0.8849 H   0  0  0  0  0  0  0  0  0  0  0  0
    0.0042   -0.6545    0.8843 H   0  0  0  0  0  0  0  0  0  0  0  0
   -1.2400    0.8234    0.0000 N   0  0  0  0  0  4  0  0  0  0  0  0
   -2.0390    0.2226   -0.0001 H   0  0  0  0  0  0  0  0  0  0  0  0
   -1.2576    1.4008    0.8167 H   0  0  0  0  0  0  0  0  0  0  0  0
   -1.2572    1.4009   -0.8161 H   0  0  0  0  0  0  0  0  0  0  0  0
   -1.8284    1.0530    4.5206 C   0  0  0  0  0  0  0  0  0  0  0  0
   -1.5835    1.0930    5.5922 H   0  0  0  0  0  0  0  0  0  0  0  0
   -2.6050    0.2843    4.3959 H   0  0  0  0  0  0  0  0  0  0  0  0
   -2.2185    2.0190    4.2003 H   0  0  0  0  0  0  0  0  0  0  0  0
   -0.3428    0.5765    3.5749 S   0  0  0  0  0  0  0  0  0  0  0  0
   -0.3084   -1.1605    3.8597 C   0  0  0  0  0  0  0  0  0  0  0  0
    0.5548   -1.6013    3.3391 H   0  0  0  0  0  0  0  0  0  0  0  0
   -0.2227   -1.3546    4.9393 H   0  0  0  0  0  0  0  0  0  0  0  0
   -1.2355   -1.6131    3.4788 H   0  0  0  0  0  0  0  0  0  0  0  0
  1  5  1  0
  5  8  1  0
  1  2  1  0
  1  3  1  0
  1  4  1  0
  5  6  1  0
  5  7  1  0
  8  9  1  0
  8 10  1  0
  8 11  1  0
 12 16  1  0
 16 17  1  0
 12 13  1  0
 12 14  1  0
 12 15  1  0
 17 18  1  0
 17 19  1  0
 17 20  1  0
M  CHG  1   8   1
M  END
>  <PDB_ID>  (1226) 
pdb3pr3

>  <RESIDUE_NAME>  (1226) 
LYS   MET

>  <FRAG_NAME>  (1226) 
ETAM   MSM

>  <FRAG_ATOM_NUM>  (1226) 
fragi: 11  fragj: 9

>  <atom.prop.CHAIN_ID>  (1226) 
A A A A A A A A A A A Z Z Z Z Z Z Z Z Z

>  <atom.prop.IS_HEAVY_ATOM>  (1226) 
1 0 0 0 1 0 0 1 0 0 0 1 0 0 0 1 1 0 0 0

>  <DIFUSE_FUNC_ATOM>  (1226) 
n/a

>  <FINAL_SINGLE_POINT_ENERGY>  (1226) 
0

>  <NONCOV_INTER_ENERGY_QM>  (1226) 
0

>  <FF_Energy>  (1226) 
-5.05

>  <QM_Energy>  (1226) 
-12.31

>  <source>  (1226) 
ETAM_MSM

>  <Index>  (1226) 
7633

$$$$
ETAM-pdb3ps0-B-LYS-279:MSM-pdb3ps0-B-MET-275
     RDKit          3D

 20 18  0  0  0  0  0  0  0  0999 V2000
    1.2440    0.8746   -0.0000 C   0  0  0  0  0  0  0  0  0  0  0  0
    1.1556    1.5531   -0.7222 H   0  0  0  0  0  0  0  0  0  0  0  0
    2.0375    0.2978   -0.1604 H   0  0  0  0  0  0  0  0  0  0  0  0
    1.3698    1.3898    0.9524 H   0  0  0  0  0  0  0  0  0  0  0  0
    0.0000    0.0000    0.0000 C   0  0  0  0  0  0  0  0  0  0  0  0
    0.0125   -0.5827   -0.8158 H   0  0  0  0  0  0  0  0  0  0  0  0
    0.0119   -0.5825    0.8160 H   0  0  0  0  0  0  0  0  0  0  0  0
   -1.2440    0.8158    0.0000 N   0  0  0  0  0  4  0  0  0  0  0  0
   -1.0169    1.7665   -0.2100 H   0  0  0  0  0  0  0  0  0  0  0  0
   -1.8729    0.4612   -0.6911 H   0  0  0  0  0  0  0  0  0  0  0  0
   -1.6739    0.7655    0.9012 H   0  0  0  0  0  0  0  0  0  0  0  0
   -3.3259    3.1348    1.7857 C   0  0  0  0  0  0  0  0  0  0  0  0
   -2.6508    3.4214    1.0786 H   0  0  0  0  0  0  0  0  0  0  0  0
   -2.8718    2.4113    2.3419 H   0  0  0  0  0  0  0  0  0  0  0  0
   -3.5411    3.9879    2.4291 H   0  0  0  0  0  0  0  0  0  0  0  0
   -4.8289    2.4951    1.0114 S   0  0  0  0  0  0  0  0  0  0  0  0
   -4.2009    1.0802    0.1087 C   0  0  0  0  0  0  0  0  0  0  0  0
   -4.7365    0.9512   -0.7266 H   0  0  0  0  0  0  0  0  0  0  0  0
   -3.2424    1.2348   -0.1326 H   0  0  0  0  0  0  0  0  0  0  0  0
   -4.2715    0.2599    0.6785 H   0  0  0  0  0  0  0  0  0  0  0  0
  1  5  1  0
  5  8  1  0
  1  2  1  0
  1  3  1  0
  1  4  1  0
  5  6  1  0
  5  7  1  0
  8  9  1  0
  8 10  1  0
  8 11  1  0
 12 16  1  0
 16 17  1  0
 12 13  1  0
 12 14  1  0
 12 15  1  0
 17 18  1  0
 17 19  1  0
 17 20  1  0
M  CHG  1   8   1
M  END
>  <PDB_ID>  (1227) 
pdb3ps0

>  <RESIDUE_NAME>  (1227) 
LYS   MET

>  <FRAG_NAME>  (1227) 
ETAM   MSM

>  <FRAG_ATOM_NUM>  (1227) 
fragi: 11  fragj: 9

>  <atom.prop.CHAIN_ID>  (1227) 
A A A A A A A A A A A Z Z Z Z Z Z Z Z Z

>  <atom.prop.IS_HEAVY_ATOM>  (1227) 
1 0 0 0 1 0 0 1 0 0 0 1 0 0 0 1 1 0 0 0

>  <DIFUSE_FUNC_ATOM>  (1227) 
n/a

>  <FINAL_SINGLE_POINT_ENERGY>  (1227) 
0

>  <NONCOV_INTER_ENERGY_QM>  (1227) 
0

>  <FF_Energy>  (1227) 
16.74

>  <QM_Energy>  (1227) 
6.9

>  <source>  (1227) 
ETAM_MSM

>  <Index>  (1227) 
7635

$$$$
ETAM-pdb3ps0-D-LYS-279:MSM-pdb3ps0-D-MET-275
     RDKit          3D

 20 18  0  0  0  0  0  0  0  0999 V2000
    1.2450    0.8732    0.0000 C   0  0  0  0  0  0  0  0  0  0  0  0
    1.1877    1.5048    0.7640 H   0  0  0  0  0  0  0  0  0  0  0  0
    1.2846    1.3669   -0.8602 H   0  0  0  0  0  0  0  0  0  0  0  0
    2.1454    0.2681    0.1052 H   0  0  0  0  0  0  0  0  0  0  0  0
    0.0000    0.0000    0.0000 C   0  0  0  0  0  0  0  0  0  0  0  0
    0.0128   -0.5836   -0.8161 H   0  0  0  0  0  0  0  0  0  0  0  0
    0.0134   -0.5841    0.8158 H   0  0  0  0  0  0  0  0  0  0  0  0
   -1.2450    0.8128   -0.0000 N   0  0  0  0  0  4  0  0  0  0  0  0
   -1.4745    1.0697    0.9382 H   0  0  0  0  0  0  0  0  0  0  0  0
   -1.1038    1.6374   -0.5469 H   0  0  0  0  0  0  0  0  0  0  0  0
   -1.9923    0.2759   -0.3918 H   0  0  0  0  0  0  0  0  0  0  0  0
   -0.3059   -0.7023    4.0210 C   0  0  0  0  0  0  0  0  0  0  0  0
    0.1328   -1.3793    3.3768 H   0  0  0  0  0  0  0  0  0  0  0  0
   -1.2971   -0.9907    4.0634 H   0  0  0  0  0  0  0  0  0  0  0  0
    0.1290   -0.8520    5.0092 H   0  0  0  0  0  0  0  0  0  0  0  0
   -0.1582    0.9860    3.3737 S   0  0  0  0  0  0  0  0  0  0  0  0
   -1.2782    1.8812    4.4541 C   0  0  0  0  0  0  0  0  0  0  0  0
   -1.4685    1.3311    5.2679 H   0  0  0  0  0  0  0  0  0  0  0  0
   -0.8575    2.7462    4.7289 H   0  0  0  0  0  0  0  0  0  0  0  0
   -2.1336    2.0661    3.9689 H   0  0  0  0  0  0  0  0  0  0  0  0
  1  5  1  0
  5  8  1  0
  1  2  1  0
  1  3  1  0
  1  4  1  0
  5  6  1  0
  5  7  1  0
  8  9  1  0
  8 10  1  0
  8 11  1  0
 12 16  1  0
 16 17  1  0
 12 13  1  0
 12 14  1  0
 12 15  1  0
 17 18  1  0
 17 19  1  0
 17 20  1  0
M  CHG  1   8   1
M  END
>  <PDB_ID>  (1228) 
pdb3ps0

>  <RESIDUE_NAME>  (1228) 
LYS   MET

>  <FRAG_NAME>  (1228) 
ETAM   MSM

>  <FRAG_ATOM_NUM>  (1228) 
fragi: 11  fragj: 9

>  <atom.prop.CHAIN_ID>  (1228) 
A A A A A A A A A A A Z Z Z Z Z Z Z Z Z

>  <atom.prop.IS_HEAVY_ATOM>  (1228) 
1 0 0 0 1 0 0 1 0 0 0 1 0 0 0 1 1 0 0 0

>  <DIFUSE_FUNC_ATOM>  (1228) 
n/a

>  <FINAL_SINGLE_POINT_ENERGY>  (1228) 
0

>  <NONCOV_INTER_ENERGY_QM>  (1228) 
0

>  <FF_Energy>  (1228) 
-5.09

>  <QM_Energy>  (1228) 
-14.45

>  <source>  (1228) 
ETAM_MSM

>  <Index>  (1228) 
7637

$$$$
ETAM-pdb3pt9-A-LYS-1284:MSM-pdb3pt9-A-MET-1281
     RDKit          3D

 20 18  0  0  0  0  0  0  0  0999 V2000
    1.2343    0.8855    0.0000 C   0  0  0  0  0  0  0  0  0  0  0  0
    1.1891    1.4941    0.7891 H   0  0  0  0  0  0  0  0  0  0  0  0
    1.2418    1.4192   -0.8423 H   0  0  0  0  0  0  0  0  0  0  0  0
    2.1544    0.3040    0.0573 H   0  0  0  0  0  0  0  0  0  0  0  0
    0.0000    0.0000    0.0000 C   0  0  0  0  0  0  0  0  0  0  0  0
    0.0137   -0.5760   -0.8163 H   0  0  0  0  0  0  0  0  0  0  0  0
    0.0129   -0.5763    0.8164 H   0  0  0  0  0  0  0  0  0  0  0  0
   -1.2343    0.8250   -0.0000 N   0  0  0  0  0  4  0  0  0  0  0  0
   -1.6865    0.7494   -0.8896 H   0  0  0  0  0  0  0  0  0  0  0  0
   -1.8519    0.5005    0.7168 H   0  0  0  0  0  0  0  0  0  0  0  0
   -0.9962    1.7808    0.1732 H   0  0  0  0  0  0  0  0  0  0  0  0
   -2.0043   -3.6096    0.7285 C   0  0  0  0  0  0  0  0  0  0  0  0
   -2.1256   -3.2342   -0.2235 H   0  0  0  0  0  0  0  0  0  0  0  0
   -2.8884   -4.0974    0.9336 H   0  0  0  0  0  0  0  0  0  0  0  0
   -1.2027   -4.3478    0.7055 H   0  0  0  0  0  0  0  0  0  0  0  0
   -1.7302   -2.2663    1.9117 S   0  0  0  0  0  0  0  0  0  0  0  0
   -1.5823   -3.1850    3.4426 C   0  0  0  0  0  0  0  0  0  0  0  0
   -1.9943   -2.6612    4.1897 H   0  0  0  0  0  0  0  0  0  0  0  0
   -2.0544   -4.0630    3.3542 H   0  0  0  0  0  0  0  0  0  0  0  0
   -0.6152   -3.3471    3.6443 H   0  0  0  0  0  0  0  0  0  0  0  0
  1  5  1  0
  5  8  1  0
  1  2  1  0
  1  3  1  0
  1  4  1  0
  5  6  1  0
  5  7  1  0
  8  9  1  0
  8 10  1  0
  8 11  1  0
 12 16  1  0
 16 17  1  0
 12 13  1  0
 12 14  1  0
 12 15  1  0
 17 18  1  0
 17 19  1  0
 17 20  1  0
M  CHG  1   8   1
M  END
>  <PDB_ID>  (1229) 
pdb3pt9

>  <RESIDUE_NAME>  (1229) 
LYS   MET

>  <FRAG_NAME>  (1229) 
ETAM   MSM

>  <FRAG_ATOM_NUM>  (1229) 
fragi: 11  fragj: 9

>  <atom.prop.CHAIN_ID>  (1229) 
A A A A A A A A A A A Z Z Z Z Z Z Z Z Z

>  <atom.prop.IS_HEAVY_ATOM>  (1229) 
1 0 0 0 1 0 0 1 0 0 0 1 0 0 0 1 1 0 0 0

>  <DIFUSE_FUNC_ATOM>  (1229) 
n/a

>  <FINAL_SINGLE_POINT_ENERGY>  (1229) 
0

>  <NONCOV_INTER_ENERGY_QM>  (1229) 
0

>  <FF_Energy>  (1229) 
-4.25

>  <QM_Energy>  (1229) 
-11.15

>  <source>  (1229) 
ETAM_MSM

>  <Index>  (1229) 
7641

$$$$
ETAM-pdb3pul-A-LYS-253:MSM-pdb3pul-A-MET-13
     RDKit          3D

 20 18  0  0  0  0  0  0  0  0999 V2000
    1.2740    0.8667   -0.0000 C   0  0  0  0  0  0  0  0  0  0  0  0
    1.2436    1.4630    0.7941 H   0  0  0  0  0  0  0  0  0  0  0  0
    1.2848    1.4025   -0.8366 H   0  0  0  0  0  0  0  0  0  0  0  0
    2.1794    0.2615    0.0461 H   0  0  0  0  0  0  0  0  0  0  0  0
    0.0000    0.0000    0.0000 C   0  0  0  0  0  0  0  0  0  0  0  0
    0.0167   -0.5917   -0.8163 H   0  0  0  0  0  0  0  0  0  0  0  0
    0.0164   -0.5915    0.8166 H   0  0  0  0  0  0  0  0  0  0  0  0
   -1.2740    0.7962    0.0000 N   0  0  0  0  0  4  0  0  0  0  0  0
   -1.6454    0.8155    0.9255 H   0  0  0  0  0  0  0  0  0  0  0  0
   -1.0763    1.7248   -0.3069 H   0  0  0  0  0  0  0  0  0  0  0  0
   -1.9258    0.3650   -0.6193 H   0  0  0  0  0  0  0  0  0  0  0  0
   -5.0772    1.7154   -0.1226 C   0  0  0  0  0  0  0  0  0  0  0  0
   -6.0229    2.0643   -0.0267 H   0  0  0  0  0  0  0  0  0  0  0  0
   -4.9359    1.0145    0.5941 H   0  0  0  0  0  0  0  0  0  0  0  0
   -4.9623    1.2550   -1.1038 H   0  0  0  0  0  0  0  0  0  0  0  0
   -3.8833    3.0594    0.0606 S   0  0  0  0  0  0  0  0  0  0  0  0
   -4.0503    3.4244    1.7768 C   0  0  0  0  0  0  0  0  0  0  0  0
   -4.3192    4.3853    1.9060 H   0  0  0  0  0  0  0  0  0  0  0  0
   -4.7525    2.8362    2.1927 H   0  0  0  0  0  0  0  0  0  0  0  0
   -3.1786    3.2689    2.2547 H   0  0  0  0  0  0  0  0  0  0  0  0
  1  5  1  0
  5  8  1  0
  1  2  1  0
  1  3  1  0
  1  4  1  0
  5  6  1  0
  5  7  1  0
  8  9  1  0
  8 10  1  0
  8 11  1  0
 12 16  1  0
 16 17  1  0
 12 13  1  0
 12 14  1  0
 12 15  1  0
 17 18  1  0
 17 19  1  0
 17 20  1  0
M  CHG  1   8   1
M  END
>  <PDB_ID>  (1230) 
pdb3pul

>  <RESIDUE_NAME>  (1230) 
LYS   MET

>  <FRAG_NAME>  (1230) 
ETAM   MSM

>  <FRAG_ATOM_NUM>  (1230) 
fragi: 11  fragj: 9

>  <atom.prop.CHAIN_ID>  (1230) 
A A A A A A A A A A A Z Z Z Z Z Z Z Z Z

>  <atom.prop.IS_HEAVY_ATOM>  (1230) 
1 0 0 0 1 0 0 1 0 0 0 1 0 0 0 1 1 0 0 0

>  <DIFUSE_FUNC_ATOM>  (1230) 
n/a

>  <FINAL_SINGLE_POINT_ENERGY>  (1230) 
0

>  <NONCOV_INTER_ENERGY_QM>  (1230) 
0

>  <FF_Energy>  (1230) 
-3.94

>  <QM_Energy>  (1230) 
-10.74

>  <source>  (1230) 
ETAM_MSM

>  <Index>  (1230) 
7646

$$$$
ETAM-pdb3pv2-A-LYS-403:MSM-pdb3pv2-C-MET-263
     RDKit          3D

 20 18  0  0  0  0  0  0  0  0999 V2000
    1.2609    0.9022    0.0000 C   0  0  0  0  0  0  0  0  0  0  0  0
    1.0276    1.7605    0.4400 H   0  0  0  0  0  0  0  0  0  0  0  0
    1.5340    1.0523   -0.9420 H   0  0  0  0  0  0  0  0  0  0  0  0
    2.0934    0.4485    0.5378 H   0  0  0  0  0  0  0  0  0  0  0  0
    0.0000    0.0000    0.0000 C   0  0  0  0  0  0  0  0  0  0  0  0
    0.0185   -0.5695   -0.8160 H   0  0  0  0  0  0  0  0  0  0  0  0
    0.0178   -0.5697    0.8165 H   0  0  0  0  0  0  0  0  0  0  0  0
   -1.2609    0.8268    0.0000 N   0  0  0  0  0  4  0  0  0  0  0  0
   -1.2879    1.3723   -0.8334 H   0  0  0  0  0  0  0  0  0  0  0  0
   -2.0467    0.2152    0.0345 H   0  0  0  0  0  0  0  0  0  0  0  0
   -1.2554    1.4222    0.7989 H   0  0  0  0  0  0  0  0  0  0  0  0
   -2.4466    3.2269    3.2056 C   0  0  0  0  0  0  0  0  0  0  0  0
   -1.5815    2.7255    2.9596 H   0  0  0  0  0  0  0  0  0  0  0  0
   -2.3601    3.4256    4.2127 H   0  0  0  0  0  0  0  0  0  0  0  0
   -2.4570    4.1754    2.6685 H   0  0  0  0  0  0  0  0  0  0  0  0
   -3.8907    2.2046    2.8792 S   0  0  0  0  0  0  0  0  0  0  0  0
   -3.5256    1.8258    1.1321 C   0  0  0  0  0  0  0  0  0  0  0  0
   -4.3078    1.3539    0.7375 H   0  0  0  0  0  0  0  0  0  0  0  0
   -3.3589    2.6807    0.6483 H   0  0  0  0  0  0  0  0  0  0  0  0
   -2.7182    1.2450    1.0936 H   0  0  0  0  0  0  0  0  0  0  0  0
  1  5  1  0
  5  8  1  0
  1  2  1  0
  1  3  1  0
  1  4  1  0
  5  6  1  0
  5  7  1  0
  8  9  1  0
  8 10  1  0
  8 11  1  0
 12 16  1  0
 16 17  1  0
 12 13  1  0
 12 14  1  0
 12 15  1  0
 17 18  1  0
 17 19  1  0
 17 20  1  0
M  CHG  1   8   1
M  END
>  <PDB_ID>  (1231) 
pdb3pv2

>  <RESIDUE_NAME>  (1231) 
LYS   MET

>  <FRAG_NAME>  (1231) 
ETAM   MSM

>  <FRAG_ATOM_NUM>  (1231) 
fragi: 11  fragj: 9

>  <atom.prop.CHAIN_ID>  (1231) 
A A A A A A A A A A A Z Z Z Z Z Z Z Z Z

>  <atom.prop.IS_HEAVY_ATOM>  (1231) 
1 0 0 0 1 0 0 1 0 0 0 1 0 0 0 1 1 0 0 0

>  <DIFUSE_FUNC_ATOM>  (1231) 
n/a

>  <FINAL_SINGLE_POINT_ENERGY>  (1231) 
0

>  <NONCOV_INTER_ENERGY_QM>  (1231) 
0

>  <FF_Energy>  (1231) 
48.13

>  <QM_Energy>  (1231) 
14.91

>  <source>  (1231) 
ETAM_MSM

>  <Index>  (1231) 
7648

$$$$
ETAM-pdb4nrt-A-LYS-146:MSM-pdb4nrt-A-MET-150
     RDKit          3D

 20 18  0  0  0  0  0  0  0  0999 V2000
    1.2439    0.8692   -0.0000 C   0  0  0  0  0  0  0  0  0  0  0  0
    1.1780    1.5173    0.7490 H   0  0  0  0  0  0  0  0  0  0  0  0
    1.2995    1.3430   -0.8705 H   0  0  0  0  0  0  0  0  0  0  0  0
    2.1396    0.2625    0.1336 H   0  0  0  0  0  0  0  0  0  0  0  0
    0.0000    0.0000    0.0000 C   0  0  0  0  0  0  0  0  0  0  0  0
    0.0088   -0.5827   -0.8167 H   0  0  0  0  0  0  0  0  0  0  0  0
    0.0085   -0.5826    0.8166 H   0  0  0  0  0  0  0  0  0  0  0  0
   -1.2439    0.8207   -0.0000 N   0  0  0  0  0  4  0  0  0  0  0  0
   -1.7045    0.7231   -0.8810 H   0  0  0  0  0  0  0  0  0  0  0  0
   -1.8478    0.5059    0.7312 H   0  0  0  0  0  0  0  0  0  0  0  0
   -1.0068    1.7802    0.1501 H   0  0  0  0  0  0  0  0  0  0  0  0
   -0.0614    0.8433    3.9331 C   0  0  0  0  0  0  0  0  0  0  0  0
    0.5942    1.3268    3.2968 H   0  0  0  0  0  0  0  0  0  0  0  0
    0.1962   -0.1548    3.8569 H   0  0  0  0  0  0  0  0  0  0  0  0
    0.1590    1.1689    4.9498 H   0  0  0  0  0  0  0  0  0  0  0  0
   -1.7677    1.1069    3.4168 S   0  0  0  0  0  0  0  0  0  0  0  0
   -2.5462   -0.4189    3.9612 C   0  0  0  0  0  0  0  0  0  0  0  0
   -3.4253   -0.5286    3.4966 H   0  0  0  0  0  0  0  0  0  0  0  0
   -1.9527   -1.1932    3.7394 H   0  0  0  0  0  0  0  0  0  0  0  0
   -2.6927   -0.3828    4.9499 H   0  0  0  0  0  0  0  0  0  0  0  0
  1  5  1  0
  5  8  1  0
  1  2  1  0
  1  3  1  0
  1  4  1  0
  5  6  1  0
  5  7  1  0
  8  9  1  0
  8 10  1  0
  8 11  1  0
 12 16  1  0
 16 17  1  0
 12 13  1  0
 12 14  1  0
 12 15  1  0
 17 18  1  0
 17 19  1  0
 17 20  1  0
M  CHG  1   8   1
M  END
>  <PDB_ID>  (1232) 
pdb4nrt

>  <RESIDUE_NAME>  (1232) 
LYS   MET

>  <FRAG_NAME>  (1232) 
ETAM   MSM

>  <FRAG_ATOM_NUM>  (1232) 
fragi: 11  fragj: 9

>  <atom.prop.CHAIN_ID>  (1232) 
A A A A A A A A A A A Z Z Z Z Z Z Z Z Z

>  <atom.prop.IS_HEAVY_ATOM>  (1232) 
1 0 0 0 1 0 0 1 0 0 0 1 0 0 0 1 1 0 0 0

>  <DIFUSE_FUNC_ATOM>  (1232) 
n/a

>  <FINAL_SINGLE_POINT_ENERGY>  (1232) 
0

>  <NONCOV_INTER_ENERGY_QM>  (1232) 
0

>  <FF_Energy>  (1232) 
-5.17

>  <QM_Energy>  (1232) 
-13.51

>  <source>  (1232) 
ETAM_MSM

>  <Index>  (1232) 
7656

$$$$
ETAM-pdb3pul-C-LYS-253:MSM-pdb3pul-C-MET-13
     RDKit          3D

 20 18  0  0  0  0  0  0  0  0999 V2000
    1.2432    0.8719   -0.0000 C   0  0  0  0  0  0  0  0  0  0  0  0
    1.2324    1.4370    0.8207 H   0  0  0  0  0  0  0  0  0  0  0  0
    1.2243    1.4473   -0.8130 H   0  0  0  0  0  0  0  0  0  0  0  0
    2.1525    0.2708   -0.0076 H   0  0  0  0  0  0  0  0  0  0  0  0
    0.0000    0.0000    0.0000 C   0  0  0  0  0  0  0  0  0  0  0  0
    0.0089   -0.5814   -0.8160 H   0  0  0  0  0  0  0  0  0  0  0  0
    0.0087   -0.5811    0.8165 H   0  0  0  0  0  0  0  0  0  0  0  0
   -1.2432    0.8225    0.0000 N   0  0  0  0  0  4  0  0  0  0  0  0
   -1.9632    0.3331   -0.4901 H   0  0  0  0  0  0  0  0  0  0  0  0
   -1.5310    0.9857    0.9429 H   0  0  0  0  0  0  0  0  0  0  0  0
   -1.0616    1.6950   -0.4521 H   0  0  0  0  0  0  0  0  0  0  0  0
   -5.0632    1.2569    0.0232 C   0  0  0  0  0  0  0  0  0  0  0  0
   -5.8774    1.8009   -0.2715 H   0  0  0  0  0  0  0  0  0  0  0  0
   -4.2484    1.8432   -0.1737 H   0  0  0  0  0  0  0  0  0  0  0  0
   -5.1239    1.0944    1.0993 H   0  0  0  0  0  0  0  0  0  0  0  0
   -4.9689   -0.2940   -0.8892 S   0  0  0  0  0  0  0  0  0  0  0  0
   -3.3705   -0.7373   -0.5104 C   0  0  0  0  0  0  0  0  0  0  0  0
   -2.7056   -0.3821   -1.1924 H   0  0  0  0  0  0  0  0  0  0  0  0
   -3.0817   -0.3809    0.3971 H   0  0  0  0  0  0  0  0  0  0  0  0
   -3.2522   -1.7468   -0.4810 H   0  0  0  0  0  0  0  0  0  0  0  0
  1  5  1  0
  5  8  1  0
  1  2  1  0
  1  3  1  0
  1  4  1  0
  5  6  1  0
  5  7  1  0
  8  9  1  0
  8 10  1  0
  8 11  1  0
 12 16  1  0
 16 17  1  0
 12 13  1  0
 12 14  1  0
 12 15  1  0
 17 18  1  0
 17 19  1  0
 17 20  1  0
M  CHG  1   8   1
M  END
>  <PDB_ID>  (1233) 
pdb3pul

>  <RESIDUE_NAME>  (1233) 
LYS   MET

>  <FRAG_NAME>  (1233) 
ETAM   MSM

>  <FRAG_ATOM_NUM>  (1233) 
fragi: 11  fragj: 9

>  <atom.prop.CHAIN_ID>  (1233) 
A A A A A A A A A A A Z Z Z Z Z Z Z Z Z

>  <atom.prop.IS_HEAVY_ATOM>  (1233) 
1 0 0 0 1 0 0 1 0 0 0 1 0 0 0 1 1 0 0 0

>  <DIFUSE_FUNC_ATOM>  (1233) 
n/a

>  <FINAL_SINGLE_POINT_ENERGY>  (1233) 
0

>  <NONCOV_INTER_ENERGY_QM>  (1233) 
0

>  <FF_Energy>  (1233) 
19.51

>  <QM_Energy>  (1233) 
12.7

>  <source>  (1233) 
ETAM_MSM

>  <Index>  (1233) 
7664

$$$$
ETAM-pdb4nt1-B-LYS-93:MSM-pdb4nt1-C-MET-59
     RDKit          3D

 20 18  0  0  0  0  0  0  0  0999 V2000
    1.2444    0.8718    0.0000 C   0  0  0  0  0  0  0  0  0  0  0  0
    0.9968    1.7775    0.3375 H   0  0  0  0  0  0  0  0  0  0  0  0
    1.5852    0.9383   -0.9347 H   0  0  0  0  0  0  0  0  0  0  0  0
    2.0300    0.4615    0.6345 H   0  0  0  0  0  0  0  0  0  0  0  0
    0.0000    0.0000    0.0000 C   0  0  0  0  0  0  0  0  0  0  0  0
    0.0077   -0.5809   -0.8164 H   0  0  0  0  0  0  0  0  0  0  0  0
    0.0083   -0.5806    0.8160 H   0  0  0  0  0  0  0  0  0  0  0  0
   -1.2444    0.8239   -0.0000 N   0  0  0  0  0  4  0  0  0  0  0  0
   -1.0014    1.7880   -0.0990 H   0  0  0  0  0  0  0  0  0  0  0  0
   -1.8257    0.5431   -0.7622 H   0  0  0  0  0  0  0  0  0  0  0  0
   -1.7310    0.6863    0.8618 H   0  0  0  0  0  0  0  0  0  0  0  0
   -2.4257    4.4074   -3.1385 C   0  0  0  0  0  0  0  0  0  0  0  0
   -2.4036    4.6409   -4.1356 H   0  0  0  0  0  0  0  0  0  0  0  0
   -1.5371    4.7440   -2.7549 H   0  0  0  0  0  0  0  0  0  0  0  0
   -3.2358    4.9680   -2.6721 H   0  0  0  0  0  0  0  0  0  0  0  0
   -2.5907    2.6242   -2.9027 S   0  0  0  0  0  0  0  0  0  0  0  0
   -3.5309    2.1708   -4.3560 C   0  0  0  0  0  0  0  0  0  0  0  0
   -2.9326    1.7101   -5.0134 H   0  0  0  0  0  0  0  0  0  0  0  0
   -4.2758    1.5536   -4.0965 H   0  0  0  0  0  0  0  0  0  0  0  0
   -3.9156    2.9935   -4.7783 H   0  0  0  0  0  0  0  0  0  0  0  0
  1  5  1  0
  5  8  1  0
  1  2  1  0
  1  3  1  0
  1  4  1  0
  5  6  1  0
  5  7  1  0
  8  9  1  0
  8 10  1  0
  8 11  1  0
 12 16  1  0
 16 17  1  0
 12 13  1  0
 12 14  1  0
 12 15  1  0
 17 18  1  0
 17 19  1  0
 17 20  1  0
M  CHG  1   8   1
M  END
>  <PDB_ID>  (1234) 
pdb4nt1

>  <RESIDUE_NAME>  (1234) 
LYS   MET

>  <FRAG_NAME>  (1234) 
ETAM   MSM

>  <FRAG_ATOM_NUM>  (1234) 
fragi: 11  fragj: 9

>  <atom.prop.CHAIN_ID>  (1234) 
A A A A A A A A A A A Z Z Z Z Z Z Z Z Z

>  <atom.prop.IS_HEAVY_ATOM>  (1234) 
1 0 0 0 1 0 0 1 0 0 0 1 0 0 0 1 1 0 0 0

>  <DIFUSE_FUNC_ATOM>  (1234) 
n/a

>  <FINAL_SINGLE_POINT_ENERGY>  (1234) 
0

>  <NONCOV_INTER_ENERGY_QM>  (1234) 
0

>  <FF_Energy>  (1234) 
-5.12

>  <QM_Energy>  (1234) 
-11.36

>  <source>  (1234) 
ETAM_MSM

>  <Index>  (1234) 
7666

$$$$
ETAM-pdb4o1n-D-LYS-116:MSM-pdb4o1n-D-MET-201
     RDKit          3D

 20 18  0  0  0  0  0  0  0  0999 V2000
    1.2319    0.8787    0.0000 C   0  0  0  0  0  0  0  0  0  0  0  0
    1.2158    1.4544    0.8166 H   0  0  0  0  0  0  0  0  0  0  0  0
    1.2158    1.4546   -0.8165 H   0  0  0  0  0  0  0  0  0  0  0  0
    2.1555    0.2997    0.0006 H   0  0  0  0  0  0  0  0  0  0  0  0
    0.0000    0.0000    0.0000 C   0  0  0  0  0  0  0  0  0  0  0  0
    0.0087   -0.5767   -0.8162 H   0  0  0  0  0  0  0  0  0  0  0  0
    0.0080   -0.5764    0.8163 H   0  0  0  0  0  0  0  0  0  0  0  0
   -1.2319    0.8296   -0.0000 N   0  0  0  0  0  4  0  0  0  0  0  0
   -1.9467    0.3647   -0.5216 H   0  0  0  0  0  0  0  0  0  0  0  0
   -1.5412    0.9663    0.9417 H   0  0  0  0  0  0  0  0  0  0  0  0
   -1.0363    1.7166   -0.4192 H   0  0  0  0  0  0  0  0  0  0  0  0
    3.2493   -3.4800   -2.9537 C   0  0  0  0  0  0  0  0  0  0  0  0
    3.2790   -4.2376   -3.6467 H   0  0  0  0  0  0  0  0  0  0  0  0
    3.6939   -3.8650   -2.1112 H   0  0  0  0  0  0  0  0  0  0  0  0
    3.8630   -2.6569   -3.3199 H   0  0  0  0  0  0  0  0  0  0  0  0
    1.5407   -2.9963   -2.6097 S   0  0  0  0  0  0  0  0  0  0  0  0
    1.7528   -1.7834   -1.3123 C   0  0  0  0  0  0  0  0  0  0  0  0
    2.7239   -1.7039   -1.0804 H   0  0  0  0  0  0  0  0  0  0  0  0
    1.4139   -0.8944   -1.6239 H   0  0  0  0  0  0  0  0  0  0  0  0
    1.2407   -2.0661   -0.4999 H   0  0  0  0  0  0  0  0  0  0  0  0
  1  5  1  0
  5  8  1  0
  1  2  1  0
  1  3  1  0
  1  4  1  0
  5  6  1  0
  5  7  1  0
  8  9  1  0
  8 10  1  0
  8 11  1  0
 12 16  1  0
 16 17  1  0
 12 13  1  0
 12 14  1  0
 12 15  1  0
 17 18  1  0
 17 19  1  0
 17 20  1  0
M  CHG  1   8   1
M  END
>  <PDB_ID>  (1235) 
pdb4o1n

>  <RESIDUE_NAME>  (1235) 
LYS   MET

>  <FRAG_NAME>  (1235) 
ETAM   MSM

>  <FRAG_ATOM_NUM>  (1235) 
fragi: 11  fragj: 9

>  <atom.prop.CHAIN_ID>  (1235) 
A A A A A A A A A A A Z Z Z Z Z Z Z Z Z

>  <atom.prop.IS_HEAVY_ATOM>  (1235) 
1 0 0 0 1 0 0 1 0 0 0 1 0 0 0 1 1 0 0 0

>  <DIFUSE_FUNC_ATOM>  (1235) 
n/a

>  <FINAL_SINGLE_POINT_ENERGY>  (1235) 
0

>  <NONCOV_INTER_ENERGY_QM>  (1235) 
0

>  <FF_Energy>  (1235) 
29.68

>  <QM_Energy>  (1235) 
7.27

>  <source>  (1235) 
ETAM_MSM

>  <Index>  (1235) 
7707

$$$$
ETAM-pdb4o1n-E-LYS-136:MSM-pdb4o1n-E-MET-185
     RDKit          3D

 20 18  0  0  0  0  0  0  0  0999 V2000
    1.2585    0.8610   -0.0000 C   0  0  0  0  0  0  0  0  0  0  0  0
    1.2607    1.4179   -0.8279 H   0  0  0  0  0  0  0  0  0  0  0  0
    2.0541    0.2584    0.0041 H   0  0  0  0  0  0  0  0  0  0  0  0
    1.3128    1.5205    0.8661 H   0  0  0  0  0  0  0  0  0  0  0  0
    0.0000    0.0000    0.0000 C   0  0  0  0  0  0  0  0  0  0  0  0
    0.0093   -0.5888   -0.8167 H   0  0  0  0  0  0  0  0  0  0  0  0
    0.0089   -0.5889    0.8158 H   0  0  0  0  0  0  0  0  0  0  0  0
   -1.2585    0.8103   -0.0000 N   0  0  0  0  0  4  0  0  0  0  0  0
   -1.9261    0.3772   -0.6029 H   0  0  0  0  0  0  0  0  0  0  0  0
   -1.6199    0.8536    0.9293 H   0  0  0  0  0  0  0  0  0  0  0  0
   -1.0553    1.7311   -0.3264 H   0  0  0  0  0  0  0  0  0  0  0  0
   -1.8140    4.7902   -0.4636 C   0  0  0  0  0  0  0  0  0  0  0  0
   -1.4061    4.9418    0.4663 H   0  0  0  0  0  0  0  0  0  0  0  0
   -2.3092    5.6611   -0.6890 H   0  0  0  0  0  0  0  0  0  0  0  0
   -0.9990    4.6659   -1.1767 H   0  0  0  0  0  0  0  0  0  0  0  0
   -2.9429    3.3946   -0.4504 S   0  0  0  0  0  0  0  0  0  0  0  0
   -4.0918    3.9505    0.8036 C   0  0  0  0  0  0  0  0  0  0  0  0
   -3.5896    4.1985    1.6345 H   0  0  0  0  0  0  0  0  0  0  0  0
   -4.5941    4.7503    0.4697 H   0  0  0  0  0  0  0  0  0  0  0  0
   -4.7397    3.2171    1.0154 H   0  0  0  0  0  0  0  0  0  0  0  0
  1  5  1  0
  5  8  1  0
  1  2  1  0
  1  3  1  0
  1  4  1  0
  5  6  1  0
  5  7  1  0
  8  9  1  0
  8 10  1  0
  8 11  1  0
 12 16  1  0
 16 17  1  0
 12 13  1  0
 12 14  1  0
 12 15  1  0
 17 18  1  0
 17 19  1  0
 17 20  1  0
M  CHG  1   8   1
M  END
>  <PDB_ID>  (1236) 
pdb4o1n

>  <RESIDUE_NAME>  (1236) 
LYS   MET

>  <FRAG_NAME>  (1236) 
ETAM   MSM

>  <FRAG_ATOM_NUM>  (1236) 
fragi: 11  fragj: 9

>  <atom.prop.CHAIN_ID>  (1236) 
A A A A A A A A A A A Z Z Z Z Z Z Z Z Z

>  <atom.prop.IS_HEAVY_ATOM>  (1236) 
1 0 0 0 1 0 0 1 0 0 0 1 0 0 0 1 1 0 0 0

>  <DIFUSE_FUNC_ATOM>  (1236) 
n/a

>  <FINAL_SINGLE_POINT_ENERGY>  (1236) 
0

>  <NONCOV_INTER_ENERGY_QM>  (1236) 
0

>  <FF_Energy>  (1236) 
-4.47

>  <QM_Energy>  (1236) 
-12.6

>  <source>  (1236) 
ETAM_MSM

>  <Index>  (1236) 
7708

$$$$
ETAM-pdb3q48-A-LYS-141:MSM-pdb3q48-A-MET-205
     RDKit          3D

 20 18  0  0  0  0  0  0  0  0999 V2000
    1.2792    0.8888   -0.0000 C   0  0  0  0  0  0  0  0  0  0  0  0
    1.2390    1.4728    0.7726 H   0  0  0  0  0  0  0  0  0  0  0  0
    1.3264    1.3474   -0.8533 H   0  0  0  0  0  0  0  0  0  0  0  0
    2.1265    0.2103    0.0988 H   0  0  0  0  0  0  0  0  0  0  0  0
    0.0000    0.0000    0.0000 C   0  0  0  0  0  0  0  0  0  0  0  0
    0.0365   -0.5932   -0.8160 H   0  0  0  0  0  0  0  0  0  0  0  0
    0.0363   -0.5932    0.8165 H   0  0  0  0  0  0  0  0  0  0  0  0
   -1.2792    0.7679    0.0000 N   0  0  0  0  0  4  0  0  0  0  0  0
   -1.2703    1.4234   -0.7546 H   0  0  0  0  0  0  0  0  0  0  0  0
   -2.0435    0.1349   -0.1127 H   0  0  0  0  0  0  0  0  0  0  0  0
   -1.3716    1.2547    0.8675 H   0  0  0  0  0  0  0  0  0  0  0  0
   -1.8627    2.2630   -4.1073 C   0  0  0  0  0  0  0  0  0  0  0  0
   -1.7969    2.3996   -5.1459 H   0  0  0  0  0  0  0  0  0  0  0  0
   -2.1026    3.2290   -3.7730 H   0  0  0  0  0  0  0  0  0  0  0  0
   -2.6981    1.5968   -3.8921 H   0  0  0  0  0  0  0  0  0  0  0  0
   -0.2546    1.7749   -3.4545 S   0  0  0  0  0  0  0  0  0  0  0  0
   -0.0444    0.0938   -4.0987 C   0  0  0  0  0  0  0  0  0  0  0  0
    0.8169   -0.2783   -3.7604 H   0  0  0  0  0  0  0  0  0  0  0  0
   -0.8048   -0.4712   -3.7863 H   0  0  0  0  0  0  0  0  0  0  0  0
   -0.0328    0.1265   -5.0958 H   0  0  0  0  0  0  0  0  0  0  0  0
  1  5  1  0
  5  8  1  0
  1  2  1  0
  1  3  1  0
  1  4  1  0
  5  6  1  0
  5  7  1  0
  8  9  1  0
  8 10  1  0
  8 11  1  0
 12 16  1  0
 16 17  1  0
 12 13  1  0
 12 14  1  0
 12 15  1  0
 17 18  1  0
 17 19  1  0
 17 20  1  0
M  CHG  1   8   1
M  END
>  <PDB_ID>  (1237) 
pdb3q48

>  <RESIDUE_NAME>  (1237) 
LYS   MET

>  <FRAG_NAME>  (1237) 
ETAM   MSM

>  <FRAG_ATOM_NUM>  (1237) 
fragi: 11  fragj: 9

>  <atom.prop.CHAIN_ID>  (1237) 
A A A A A A A A A A A Z Z Z Z Z Z Z Z Z

>  <atom.prop.IS_HEAVY_ATOM>  (1237) 
1 0 0 0 1 0 0 1 0 0 0 1 0 0 0 1 1 0 0 0

>  <DIFUSE_FUNC_ATOM>  (1237) 
n/a

>  <FINAL_SINGLE_POINT_ENERGY>  (1237) 
0

>  <NONCOV_INTER_ENERGY_QM>  (1237) 
0

>  <FF_Energy>  (1237) 
-4.95

>  <QM_Energy>  (1237) 
-12.87

>  <source>  (1237) 
ETAM_MSM

>  <Index>  (1237) 
7711

$$$$
ETAM-pdb3q48-B-LYS-141:MSM-pdb3q48-B-MET-205
     RDKit          3D

 20 18  0  0  0  0  0  0  0  0999 V2000
    1.2674    0.8616   -0.0000 C   0  0  0  0  0  0  0  0  0  0  0  0
    1.3279    1.3394    0.8573 H   0  0  0  0  0  0  0  0  0  0  0  0
    1.2357    1.4744   -0.7680 H   0  0  0  0  0  0  0  0  0  0  0  0
    2.1443    0.2222   -0.1021 H   0  0  0  0  0  0  0  0  0  0  0  0
    0.0000    0.0000    0.0000 C   0  0  0  0  0  0  0  0  0  0  0  0
    0.0226   -0.5997   -0.8164 H   0  0  0  0  0  0  0  0  0  0  0  0
    0.0224   -0.6000    0.8166 H   0  0  0  0  0  0  0  0  0  0  0  0
   -1.2674    0.7754   -0.0000 N   0  0  0  0  0  4  0  0  0  0  0  0
   -1.9840    0.2424   -0.4507 H   0  0  0  0  0  0  0  0  0  0  0  0
   -1.5390    0.9696    0.9431 H   0  0  0  0  0  0  0  0  0  0  0  0
   -1.1315    1.6355   -0.4924 H   0  0  0  0  0  0  0  0  0  0  0  0
   -2.4926    1.5902   -3.9546 C   0  0  0  0  0  0  0  0  0  0  0  0
   -2.5728    1.6139   -4.9813 H   0  0  0  0  0  0  0  0  0  0  0  0
   -2.7748    2.5305   -3.6450 H   0  0  0  0  0  0  0  0  0  0  0  0
   -3.2256    0.8772   -3.5771 H   0  0  0  0  0  0  0  0  0  0  0  0
   -0.8373    1.2096   -3.4426 S   0  0  0  0  0  0  0  0  0  0  0  0
   -0.8444   -0.5417   -3.8532 C   0  0  0  0  0  0  0  0  0  0  0  0
   -1.3289   -1.0478   -3.1393 H   0  0  0  0  0  0  0  0  0  0  0  0
   -1.3060   -0.6747   -4.7297 H   0  0  0  0  0  0  0  0  0  0  0  0
    0.0966   -0.8718   -3.9170 H   0  0  0  0  0  0  0  0  0  0  0  0
  1  5  1  0
  5  8  1  0
  1  2  1  0
  1  3  1  0
  1  4  1  0
  5  6  1  0
  5  7  1  0
  8  9  1  0
  8 10  1  0
  8 11  1  0
 12 16  1  0
 16 17  1  0
 12 13  1  0
 12 14  1  0
 12 15  1  0
 17 18  1  0
 17 19  1  0
 17 20  1  0
M  CHG  1   8   1
M  END
>  <PDB_ID>  (1238) 
pdb3q48

>  <RESIDUE_NAME>  (1238) 
LYS   MET

>  <FRAG_NAME>  (1238) 
ETAM   MSM

>  <FRAG_ATOM_NUM>  (1238) 
fragi: 11  fragj: 9

>  <atom.prop.CHAIN_ID>  (1238) 
A A A A A A A A A A A Z Z Z Z Z Z Z Z Z

>  <atom.prop.IS_HEAVY_ATOM>  (1238) 
1 0 0 0 1 0 0 1 0 0 0 1 0 0 0 1 1 0 0 0

>  <DIFUSE_FUNC_ATOM>  (1238) 
n/a

>  <FINAL_SINGLE_POINT_ENERGY>  (1238) 
0

>  <NONCOV_INTER_ENERGY_QM>  (1238) 
0

>  <FF_Energy>  (1238) 
-4.92

>  <QM_Energy>  (1238) 
-12.25

>  <source>  (1238) 
ETAM_MSM

>  <Index>  (1238) 
7712

$$$$
ETAM-pdb4o6x-A-LYS-53:MSM-pdb4o6x-A-MET-8
     RDKit          3D

 20 18  0  0  0  0  0  0  0  0999 V2000
    1.2294    0.8793    0.0000 C   0  0  0  0  0  0  0  0  0  0  0  0
    1.0589    1.6667    0.5947 H   0  0  0  0  0  0  0  0  0  0  0  0
    1.3912    1.2019   -0.9346 H   0  0  0  0  0  0  0  0  0  0  0  0
    2.1200    0.3591    0.3526 H   0  0  0  0  0  0  0  0  0  0  0  0
    0.0000    0.0000    0.0000 C   0  0  0  0  0  0  0  0  0  0  0  0
    0.0009   -0.5694   -0.8166 H   0  0  0  0  0  0  0  0  0  0  0  0
    0.0008   -0.5700    0.8159 H   0  0  0  0  0  0  0  0  0  0  0  0
   -1.2294    0.8506    0.0000 N   0  0  0  0  0  4  0  0  0  0  0  0
   -1.0860    1.6345   -0.6018 H   0  0  0  0  0  0  0  0  0  0  0  0
   -2.0022    0.3100   -0.3282 H   0  0  0  0  0  0  0  0  0  0  0  0
   -1.4093    1.1677    0.9297 H   0  0  0  0  0  0  0  0  0  0  0  0
    0.5488   -1.2577   -5.3149 C   0  0  0  0  0  0  0  0  0  0  0  0
    1.3219   -1.0535   -5.9654 H   0  0  0  0  0  0  0  0  0  0  0  0
   -0.2906   -1.3029   -5.9117 H   0  0  0  0  0  0  0  0  0  0  0  0
    0.7165   -2.2464   -4.8879 H   0  0  0  0  0  0  0  0  0  0  0  0
    0.3847    0.0672   -4.0841 S   0  0  0  0  0  0  0  0  0  0  0  0
    1.6822   -0.3947   -2.9688 C   0  0  0  0  0  0  0  0  0  0  0  0
    1.5404   -1.3340   -2.6445 H   0  0  0  0  0  0  0  0  0  0  0  0
    2.5716   -0.3436   -3.4329 H   0  0  0  0  0  0  0  0  0  0  0  0
    1.6933    0.2232   -2.1777 H   0  0  0  0  0  0  0  0  0  0  0  0
  1  5  1  0
  5  8  1  0
  1  2  1  0
  1  3  1  0
  1  4  1  0
  5  6  1  0
  5  7  1  0
  8  9  1  0
  8 10  1  0
  8 11  1  0
 12 16  1  0
 16 17  1  0
 12 13  1  0
 12 14  1  0
 12 15  1  0
 17 18  1  0
 17 19  1  0
 17 20  1  0
M  CHG  1   8   1
M  END
>  <PDB_ID>  (1239) 
pdb4o6x

>  <RESIDUE_NAME>  (1239) 
LYS   MET

>  <FRAG_NAME>  (1239) 
ETAM   MSM

>  <FRAG_ATOM_NUM>  (1239) 
fragi: 11  fragj: 9

>  <atom.prop.CHAIN_ID>  (1239) 
A A A A A A A A A A A Z Z Z Z Z Z Z Z Z

>  <atom.prop.IS_HEAVY_ATOM>  (1239) 
1 0 0 0 1 0 0 1 0 0 0 1 0 0 0 1 1 0 0 0

>  <DIFUSE_FUNC_ATOM>  (1239) 
n/a

>  <FINAL_SINGLE_POINT_ENERGY>  (1239) 
0

>  <NONCOV_INTER_ENERGY_QM>  (1239) 
0

>  <FF_Energy>  (1239) 
11.59

>  <QM_Energy>  (1239) 
-1.58

>  <source>  (1239) 
ETAM_MSM

>  <Index>  (1239) 
7734

$$$$
ETAM-pdb3qb9-D-LYS-111:MSM-pdb3qb9-D-MET-107
     RDKit          3D

 20 18  0  0  0  0  0  0  0  0999 V2000
    1.2534    0.8704   -0.0000 C   0  0  0  0  0  0  0  0  0  0  0  0
    1.3515    1.2830   -0.8998 H   0  0  0  0  0  0  0  0  0  0  0  0
    2.0386    0.2944    0.2045 H   0  0  0  0  0  0  0  0  0  0  0  0
    1.1943    1.6634    0.7456 H   0  0  0  0  0  0  0  0  0  0  0  0
    0.0000    0.0000    0.0000 C   0  0  0  0  0  0  0  0  0  0  0  0
    0.0148   -0.5872   -0.8162 H   0  0  0  0  0  0  0  0  0  0  0  0
    0.0141   -0.5865    0.8163 H   0  0  0  0  0  0  0  0  0  0  0  0
   -1.2534    0.8065   -0.0000 N   0  0  0  0  0  4  0  0  0  0  0  0
   -1.3832    1.2161    0.9024 H   0  0  0  0  0  0  0  0  0  0  0  0
   -1.1828    1.5272   -0.6883 H   0  0  0  0  0  0  0  0  0  0  0  0
   -2.0281    0.2133   -0.2143 H   0  0  0  0  0  0  0  0  0  0  0  0
   -2.4661    2.0870    3.6673 C   0  0  0  0  0  0  0  0  0  0  0  0
   -1.9022    1.2344    3.5757 H   0  0  0  0  0  0  0  0  0  0  0  0
   -3.4338    1.7945    3.4900 H   0  0  0  0  0  0  0  0  0  0  0  0
   -2.3946    2.4370    4.6972 H   0  0  0  0  0  0  0  0  0  0  0  0
   -1.9451    3.3302    2.4727 S   0  0  0  0  0  0  0  0  0  0  0  0
   -3.2952    4.4982    2.6179 C   0  0  0  0  0  0  0  0  0  0  0  0
   -3.2463    4.9602    3.5047 H   0  0  0  0  0  0  0  0  0  0  0  0
   -3.2310    5.1786    1.8865 H   0  0  0  0  0  0  0  0  0  0  0  0
   -4.1680    4.0129    2.5450 H   0  0  0  0  0  0  0  0  0  0  0  0
  1  5  1  0
  5  8  1  0
  1  2  1  0
  1  3  1  0
  1  4  1  0
  5  6  1  0
  5  7  1  0
  8  9  1  0
  8 10  1  0
  8 11  1  0
 12 16  1  0
 16 17  1  0
 12 13  1  0
 12 14  1  0
 12 15  1  0
 17 18  1  0
 17 19  1  0
 17 20  1  0
M  CHG  1   8   1
M  END
>  <PDB_ID>  (1240) 
pdb3qb9

>  <RESIDUE_NAME>  (1240) 
LYS   MET

>  <FRAG_NAME>  (1240) 
ETAM   MSM

>  <FRAG_ATOM_NUM>  (1240) 
fragi: 11  fragj: 9

>  <atom.prop.CHAIN_ID>  (1240) 
A A A A A A A A A A A Z Z Z Z Z Z Z Z Z

>  <atom.prop.IS_HEAVY_ATOM>  (1240) 
1 0 0 0 1 0 0 1 0 0 0 1 0 0 0 1 1 0 0 0

>  <DIFUSE_FUNC_ATOM>  (1240) 
n/a

>  <FINAL_SINGLE_POINT_ENERGY>  (1240) 
0

>  <NONCOV_INTER_ENERGY_QM>  (1240) 
0

>  <FF_Energy>  (1240) 
-4.87

>  <QM_Energy>  (1240) 
-12.12

>  <source>  (1240) 
ETAM_MSM

>  <Index>  (1240) 
7748

$$$$
ETAM-pdb3q9t-A-LYS-567:MSM-pdb3q9t-A-MET-571
     RDKit          3D

 20 18  0  0  0  0  0  0  0  0999 V2000
    1.2526    0.8685   -0.0000 C   0  0  0  0  0  0  0  0  0  0  0  0
    1.3586    1.2754   -0.9047 H   0  0  0  0  0  0  0  0  0  0  0  0
    2.0401    0.2919    0.2074 H   0  0  0  0  0  0  0  0  0  0  0  0
    1.2073    1.6709    0.7363 H   0  0  0  0  0  0  0  0  0  0  0  0
    0.0000    0.0000    0.0000 C   0  0  0  0  0  0  0  0  0  0  0  0
    0.0098   -0.5849   -0.8165 H   0  0  0  0  0  0  0  0  0  0  0  0
    0.0103   -0.5848    0.8165 H   0  0  0  0  0  0  0  0  0  0  0  0
   -1.2526    0.8148   -0.0000 N   0  0  0  0  0  4  0  0  0  0  0  0
   -1.9141    0.3997   -0.6215 H   0  0  0  0  0  0  0  0  0  0  0  0
   -1.6281    0.8399    0.9253 H   0  0  0  0  0  0  0  0  0  0  0  0
   -1.0410    1.7426   -0.3028 H   0  0  0  0  0  0  0  0  0  0  0  0
   -1.6891    1.9333    3.9627 C   0  0  0  0  0  0  0  0  0  0  0  0
   -2.5635    2.1944    3.4912 H   0  0  0  0  0  0  0  0  0  0  0  0
   -0.9681    2.5374    3.5516 H   0  0  0  0  0  0  0  0  0  0  0  0
   -1.7874    2.2015    5.0145 H   0  0  0  0  0  0  0  0  0  0  0  0
   -1.3023    0.1863    3.6919 S   0  0  0  0  0  0  0  0  0  0  0  0
    0.3405    0.1222    4.4246 C   0  0  0  0  0  0  0  0  0  0  0  0
    1.0280    0.2287    3.7063 H   0  0  0  0  0  0  0  0  0  0  0  0
    0.4350    0.8614    5.0915 H   0  0  0  0  0  0  0  0  0  0  0  0
    0.4655   -0.7583    4.8805 H   0  0  0  0  0  0  0  0  0  0  0  0
  1  5  1  0
  5  8  1  0
  1  2  1  0
  1  3  1  0
  1  4  1  0
  5  6  1  0
  5  7  1  0
  8  9  1  0
  8 10  1  0
  8 11  1  0
 12 16  1  0
 16 17  1  0
 12 13  1  0
 12 14  1  0
 12 15  1  0
 17 18  1  0
 17 19  1  0
 17 20  1  0
M  CHG  1   8   1
M  END
>  <PDB_ID>  (1241) 
pdb3q9t

>  <RESIDUE_NAME>  (1241) 
LYS   MET

>  <FRAG_NAME>  (1241) 
ETAM   MSM

>  <FRAG_ATOM_NUM>  (1241) 
fragi: 11  fragj: 9

>  <atom.prop.CHAIN_ID>  (1241) 
A A A A A A A A A A A Z Z Z Z Z Z Z Z Z

>  <atom.prop.IS_HEAVY_ATOM>  (1241) 
1 0 0 0 1 0 0 1 0 0 0 1 0 0 0 1 1 0 0 0

>  <DIFUSE_FUNC_ATOM>  (1241) 
n/a

>  <FINAL_SINGLE_POINT_ENERGY>  (1241) 
0

>  <NONCOV_INTER_ENERGY_QM>  (1241) 
0

>  <FF_Energy>  (1241) 
-4.72

>  <QM_Energy>  (1241) 
-12.07

>  <source>  (1241) 
ETAM_MSM

>  <Index>  (1241) 
7750

$$$$
ETAM-pdb4o1n-F-LYS-136:MSM-pdb4o1n-F-MET-185
     RDKit          3D

 20 18  0  0  0  0  0  0  0  0999 V2000
    1.2683    0.8260    0.0000 C   0  0  0  0  0  0  0  0  0  0  0  0
    1.2643    1.4165   -0.8001 H   0  0  0  0  0  0  0  0  0  0  0  0
    2.0488    0.2109   -0.0259 H   0  0  0  0  0  0  0  0  0  0  0  0
    1.3311    1.4438    0.8958 H   0  0  0  0  0  0  0  0  0  0  0  0
    0.0000    0.0000    0.0000 C   0  0  0  0  0  0  0  0  0  0  0  0
    0.0018   -0.6057   -0.8157 H   0  0  0  0  0  0  0  0  0  0  0  0
    0.0015   -0.6063    0.8166 H   0  0  0  0  0  0  0  0  0  0  0  0
   -1.2683    0.7937    0.0000 N   0  0  0  0  0  4  0  0  0  0  0  0
   -1.5942    0.8910   -0.9384 H   0  0  0  0  0  0  0  0  0  0  0  0
   -1.9533    0.3163    0.5473 H   0  0  0  0  0  0  0  0  0  0  0  0
   -1.0906    1.6945    0.3912 H   0  0  0  0  0  0  0  0  0  0  0  0
   -1.6281    5.0735    0.1592 C   0  0  0  0  0  0  0  0  0  0  0  0
   -1.1846    4.8822    1.0682 H   0  0  0  0  0  0  0  0  0  0  0  0
   -1.9704    6.0415    0.2290 H   0  0  0  0  0  0  0  0  0  0  0  0
   -0.8578    5.0371   -0.6111 H   0  0  0  0  0  0  0  0  0  0  0  0
   -2.9999    3.9315   -0.1340 S   0  0  0  0  0  0  0  0  0  0  0  0
   -3.7304    3.8792    1.5068 C   0  0  0  0  0  0  0  0  0  0  0  0
   -4.6392    4.2965    1.4798 H   0  0  0  0  0  0  0  0  0  0  0  0
   -3.8085    2.9283    1.8061 H   0  0  0  0  0  0  0  0  0  0  0  0
   -3.1498    4.3842    2.1465 H   0  0  0  0  0  0  0  0  0  0  0  0
  1  5  1  0
  5  8  1  0
  1  2  1  0
  1  3  1  0
  1  4  1  0
  5  6  1  0
  5  7  1  0
  8  9  1  0
  8 10  1  0
  8 11  1  0
 12 16  1  0
 16 17  1  0
 12 13  1  0
 12 14  1  0
 12 15  1  0
 17 18  1  0
 17 19  1  0
 17 20  1  0
M  CHG  1   8   1
M  END
>  <PDB_ID>  (1242) 
pdb4o1n

>  <RESIDUE_NAME>  (1242) 
LYS   MET

>  <FRAG_NAME>  (1242) 
ETAM   MSM

>  <FRAG_ATOM_NUM>  (1242) 
fragi: 11  fragj: 9

>  <atom.prop.CHAIN_ID>  (1242) 
A A A A A A A A A A A Z Z Z Z Z Z Z Z Z

>  <atom.prop.IS_HEAVY_ATOM>  (1242) 
1 0 0 0 1 0 0 1 0 0 0 1 0 0 0 1 1 0 0 0

>  <DIFUSE_FUNC_ATOM>  (1242) 
n/a

>  <FINAL_SINGLE_POINT_ENERGY>  (1242) 
0

>  <NONCOV_INTER_ENERGY_QM>  (1242) 
0

>  <FF_Energy>  (1242) 
-4.22

>  <QM_Energy>  (1242) 
-11.12

>  <source>  (1242) 
ETAM_MSM

>  <Index>  (1242) 
7759

$$$$
ETAM-pdb3qde-A-LYS-89:MSM-pdb3qde-A-MET-67
     RDKit          3D

 20 18  0  0  0  0  0  0  0  0999 V2000
    1.2451    0.8759   -0.0000 C   0  0  0  0  0  0  0  0  0  0  0  0
    1.1012    1.6267    0.6254 H   0  0  0  0  0  0  0  0  0  0  0  0
    1.4034    1.1969   -0.9205 H   0  0  0  0  0  0  0  0  0  0  0  0
    2.1042    0.2924    0.3311 H   0  0  0  0  0  0  0  0  0  0  0  0
    0.0000    0.0000    0.0000 C   0  0  0  0  0  0  0  0  0  0  0  0
    0.0206   -0.5887   -0.8163 H   0  0  0  0  0  0  0  0  0  0  0  0
    0.0203   -0.5889    0.8167 H   0  0  0  0  0  0  0  0  0  0  0  0
   -1.2451    0.7969   -0.0000 N   0  0  0  0  0  4  0  0  0  0  0  0
   -2.0113    0.2245   -0.2974 H   0  0  0  0  0  0  0  0  0  0  0  0
   -1.4258    1.1384    0.9240 H   0  0  0  0  0  0  0  0  0  0  0  0
   -1.1486    1.5720   -0.6261 H   0  0  0  0  0  0  0  0  0  0  0  0
   -5.2196    0.0358    2.8719 C   0  0  0  0  0  0  0  0  0  0  0  0
   -5.6206   -0.0564    1.9440 H   0  0  0  0  0  0  0  0  0  0  0  0
   -5.2452    1.0226    3.1103 H   0  0  0  0  0  0  0  0  0  0  0  0
   -5.8378   -0.5158    3.5801 H   0  0  0  0  0  0  0  0  0  0  0  0
   -3.5235   -0.5835    2.8978 S   0  0  0  0  0  0  0  0  0  0  0  0
   -2.9886    0.0825    4.4614 C   0  0  0  0  0  0  0  0  0  0  0  0
   -2.0170    0.3248    4.4137 H   0  0  0  0  0  0  0  0  0  0  0  0
   -3.5212    0.9034    4.6818 H   0  0  0  0  0  0  0  0  0  0  0  0
   -3.1215   -0.5992    5.1854 H   0  0  0  0  0  0  0  0  0  0  0  0
  1  5  1  0
  5  8  1  0
  1  2  1  0
  1  3  1  0
  1  4  1  0
  5  6  1  0
  5  7  1  0
  8  9  1  0
  8 10  1  0
  8 11  1  0
 12 16  1  0
 16 17  1  0
 12 13  1  0
 12 14  1  0
 12 15  1  0
 17 18  1  0
 17 19  1  0
 17 20  1  0
M  CHG  1   8   1
M  END
>  <PDB_ID>  (1243) 
pdb3qde

>  <RESIDUE_NAME>  (1243) 
LYS   MET

>  <FRAG_NAME>  (1243) 
ETAM   MSM

>  <FRAG_ATOM_NUM>  (1243) 
fragi: 11  fragj: 9

>  <atom.prop.CHAIN_ID>  (1243) 
A A A A A A A A A A A Z Z Z Z Z Z Z Z Z

>  <atom.prop.IS_HEAVY_ATOM>  (1243) 
1 0 0 0 1 0 0 1 0 0 0 1 0 0 0 1 1 0 0 0

>  <DIFUSE_FUNC_ATOM>  (1243) 
n/a

>  <FINAL_SINGLE_POINT_ENERGY>  (1243) 
0

>  <NONCOV_INTER_ENERGY_QM>  (1243) 
0

>  <FF_Energy>  (1243) 
-4.12

>  <QM_Energy>  (1243) 
-10.42

>  <source>  (1243) 
ETAM_MSM

>  <Index>  (1243) 
7765

$$$$
ETAM-pdb3qde-B-LYS-89:MSM-pdb3qde-B-MET-67
     RDKit          3D

 20 18  0  0  0  0  0  0  0  0999 V2000
    1.2364    0.8815   -0.0000 C   0  0  0  0  0  0  0  0  0  0  0  0
    1.1259    1.5821    0.6952 H   0  0  0  0  0  0  0  0  0  0  0  0
    1.3326    1.2910   -0.8993 H   0  0  0  0  0  0  0  0  0  0  0  0
    2.1277    0.2952    0.2235 H   0  0  0  0  0  0  0  0  0  0  0  0
    0.0000    0.0000    0.0000 C   0  0  0  0  0  0  0  0  0  0  0  0
    0.0134   -0.5781   -0.8163 H   0  0  0  0  0  0  0  0  0  0  0  0
    0.0125   -0.5788    0.8168 H   0  0  0  0  0  0  0  0  0  0  0  0
   -1.2364    0.8212   -0.0000 N   0  0  0  0  0  4  0  0  0  0  0  0
   -1.5600    0.9368    0.9390 H   0  0  0  0  0  0  0  0  0  0  0  0
   -1.0410    1.7180   -0.3989 H   0  0  0  0  0  0  0  0  0  0  0  0
   -1.9416    0.3618   -0.5414 H   0  0  0  0  0  0  0  0  0  0  0  0
   -4.7860   -0.4319    3.2724 C   0  0  0  0  0  0  0  0  0  0  0  0
   -5.3247   -0.5557    2.3940 H   0  0  0  0  0  0  0  0  0  0  0  0
   -4.9182    0.5706    3.5037 H   0  0  0  0  0  0  0  0  0  0  0  0
   -5.2778   -1.0191    4.0478 H   0  0  0  0  0  0  0  0  0  0  0  0
   -3.0231   -0.7949    2.9956 S   0  0  0  0  0  0  0  0  0  0  0  0
   -2.3619   -0.3839    4.6009 C   0  0  0  0  0  0  0  0  0  0  0  0
   -1.3623   -0.3286    4.5524 H   0  0  0  0  0  0  0  0  0  0  0  0
   -2.7253    0.5010    4.9013 H   0  0  0  0  0  0  0  0  0  0  0  0
   -2.6207   -1.0890    5.2651 H   0  0  0  0  0  0  0  0  0  0  0  0
  1  5  1  0
  5  8  1  0
  1  2  1  0
  1  3  1  0
  1  4  1  0
  5  6  1  0
  5  7  1  0
  8  9  1  0
  8 10  1  0
  8 11  1  0
 12 16  1  0
 16 17  1  0
 12 13  1  0
 12 14  1  0
 12 15  1  0
 17 18  1  0
 17 19  1  0
 17 20  1  0
M  CHG  1   8   1
M  END
>  <PDB_ID>  (1244) 
pdb3qde

>  <RESIDUE_NAME>  (1244) 
LYS   MET

>  <FRAG_NAME>  (1244) 
ETAM   MSM

>  <FRAG_ATOM_NUM>  (1244) 
fragi: 11  fragj: 9

>  <atom.prop.CHAIN_ID>  (1244) 
A A A A A A A A A A A Z Z Z Z Z Z Z Z Z

>  <atom.prop.IS_HEAVY_ATOM>  (1244) 
1 0 0 0 1 0 0 1 0 0 0 1 0 0 0 1 1 0 0 0

>  <DIFUSE_FUNC_ATOM>  (1244) 
n/a

>  <FINAL_SINGLE_POINT_ENERGY>  (1244) 
0

>  <NONCOV_INTER_ENERGY_QM>  (1244) 
0

>  <FF_Energy>  (1244) 
-4.65

>  <QM_Energy>  (1244) 
-11.89

>  <source>  (1244) 
ETAM_MSM

>  <Index>  (1244) 
7773

$$$$
ETAM-pdb4obd-B-LYS-20:MSM-pdb4obd-B-MET-36
     RDKit          3D

 20 18  0  0  0  0  0  0  0  0999 V2000
    1.2367    0.8805   -0.0000 C   0  0  0  0  0  0  0  0  0  0  0  0
    1.9954    0.3609    0.3907 H   0  0  0  0  0  0  0  0  0  0  0  0
    1.0527    1.6837    0.5636 H   0  0  0  0  0  0  0  0  0  0  0  0
    1.5101    1.2058   -1.0037 H   0  0  0  0  0  0  0  0  0  0  0  0
    0.0000    0.0000    0.0000 C   0  0  0  0  0  0  0  0  0  0  0  0
    0.0128   -0.5783   -0.8160 H   0  0  0  0  0  0  0  0  0  0  0  0
    0.0118   -0.5788    0.8166 H   0  0  0  0  0  0  0  0  0  0  0  0
   -1.2367    0.8219    0.0000 N   0  0  0  0  0  4  0  0  0  0  0  0
   -2.0003    0.2745   -0.3437 H   0  0  0  0  0  0  0  0  0  0  0  0
   -1.4359    1.1245    0.9328 H   0  0  0  0  0  0  0  0  0  0  0  0
   -1.1067    1.6201   -0.5893 H   0  0  0  0  0  0  0  0  0  0  0  0
   -2.8619   -0.9744    3.9062 C   0  0  0  0  0  0  0  0  0  0  0  0
   -2.7757   -0.3071    4.6786 H   0  0  0  0  0  0  0  0  0  0  0  0
   -3.2715   -1.8194    4.3144 H   0  0  0  0  0  0  0  0  0  0  0  0
   -3.5579   -0.5690    3.1718 H   0  0  0  0  0  0  0  0  0  0  0  0
   -1.2467   -1.3310    3.1898 S   0  0  0  0  0  0  0  0  0  0  0  0
   -1.6115   -2.6745    2.0786 C   0  0  0  0  0  0  0  0  0  0  0  0
   -1.7210   -3.5256    2.5969 H   0  0  0  0  0  0  0  0  0  0  0  0
   -2.4600   -2.4838    1.5796 H   0  0  0  0  0  0  0  0  0  0  0  0
   -0.8622   -2.7860    1.4207 H   0  0  0  0  0  0  0  0  0  0  0  0
  1  5  1  0
  5  8  1  0
  1  2  1  0
  1  3  1  0
  1  4  1  0
  5  6  1  0
  5  7  1  0
  8  9  1  0
  8 10  1  0
  8 11  1  0
 12 16  1  0
 16 17  1  0
 12 13  1  0
 12 14  1  0
 12 15  1  0
 17 18  1  0
 17 19  1  0
 17 20  1  0
M  CHG  1   8   1
M  END
>  <PDB_ID>  (1245) 
pdb4obd

>  <RESIDUE_NAME>  (1245) 
LYS   MET

>  <FRAG_NAME>  (1245) 
ETAM   MSM

>  <FRAG_ATOM_NUM>  (1245) 
fragi: 11  fragj: 9

>  <atom.prop.CHAIN_ID>  (1245) 
A A A A A A A A A A A Z Z Z Z Z Z Z Z Z

>  <atom.prop.IS_HEAVY_ATOM>  (1245) 
1 0 0 0 1 0 0 1 0 0 0 1 0 0 0 1 1 0 0 0

>  <DIFUSE_FUNC_ATOM>  (1245) 
n/a

>  <FINAL_SINGLE_POINT_ENERGY>  (1245) 
0

>  <NONCOV_INTER_ENERGY_QM>  (1245) 
0

>  <FF_Energy>  (1245) 
-3.37

>  <QM_Energy>  (1245) 
-9.43

>  <source>  (1245) 
ETAM_MSM

>  <Index>  (1245) 
7775

$$$$
ETAM-pdb4obd-B-LYS-55:MSM-pdb4obd-B-MET-46
     RDKit          3D

 20 18  0  0  0  0  0  0  0  0999 V2000
    1.2630    0.8581   -0.0000 C   0  0  0  0  0  0  0  0  0  0  0  0
    1.9276    0.4413   -0.6045 H   0  0  0  0  0  0  0  0  0  0  0  0
    1.6076    0.9127    0.9260 H   0  0  0  0  0  0  0  0  0  0  0  0
    1.0452    1.8650   -0.3560 H   0  0  0  0  0  0  0  0  0  0  0  0
    0.0000    0.0000    0.0000 C   0  0  0  0  0  0  0  0  0  0  0  0
    0.0108   -0.5923   -0.8156 H   0  0  0  0  0  0  0  0  0  0  0  0
    0.0102   -0.5922    0.8166 H   0  0  0  0  0  0  0  0  0  0  0  0
   -1.2630    0.8026    0.0000 N   0  0  0  0  0  4  0  0  0  0  0  0
   -1.8918    0.4227    0.6756 H   0  0  0  0  0  0  0  0  0  0  0  0
   -1.0493    1.7492    0.2321 H   0  0  0  0  0  0  0  0  0  0  0  0
   -1.6767    0.7617   -0.9072 H   0  0  0  0  0  0  0  0  0  0  0  0
   -2.7671    5.4378   -0.5596 C   0  0  0  0  0  0  0  0  0  0  0  0
   -2.0661    5.8024    0.0699 H   0  0  0  0  0  0  0  0  0  0  0  0
   -3.6103    5.2814   -0.0271 H   0  0  0  0  0  0  0  0  0  0  0  0
   -2.9662    6.1744   -1.3380 H   0  0  0  0  0  0  0  0  0  0  0  0
   -2.2040    3.9113   -1.3278 S   0  0  0  0  0  0  0  0  0  0  0  0
   -3.7825    3.1813   -1.7482 C   0  0  0  0  0  0  0  0  0  0  0  0
   -3.8027    2.9618   -2.7252 H   0  0  0  0  0  0  0  0  0  0  0  0
   -3.9179    2.3423   -1.2178 H   0  0  0  0  0  0  0  0  0  0  0  0
   -4.5185    3.8274   -1.5389 H   0  0  0  0  0  0  0  0  0  0  0  0
  1  5  1  0
  5  8  1  0
  1  2  1  0
  1  3  1  0
  1  4  1  0
  5  6  1  0
  5  7  1  0
  8  9  1  0
  8 10  1  0
  8 11  1  0
 12 16  1  0
 16 17  1  0
 12 13  1  0
 12 14  1  0
 12 15  1  0
 17 18  1  0
 17 19  1  0
 17 20  1  0
M  CHG  1   8   1
M  END
>  <PDB_ID>  (1246) 
pdb4obd

>  <RESIDUE_NAME>  (1246) 
LYS   MET

>  <FRAG_NAME>  (1246) 
ETAM   MSM

>  <FRAG_ATOM_NUM>  (1246) 
fragi: 11  fragj: 9

>  <atom.prop.CHAIN_ID>  (1246) 
A A A A A A A A A A A Z Z Z Z Z Z Z Z Z

>  <atom.prop.IS_HEAVY_ATOM>  (1246) 
1 0 0 0 1 0 0 1 0 0 0 1 0 0 0 1 1 0 0 0

>  <DIFUSE_FUNC_ATOM>  (1246) 
n/a

>  <FINAL_SINGLE_POINT_ENERGY>  (1246) 
0

>  <NONCOV_INTER_ENERGY_QM>  (1246) 
0

>  <FF_Energy>  (1246) 
-4.56

>  <QM_Energy>  (1246) 
-11.47

>  <source>  (1246) 
ETAM_MSM

>  <Index>  (1246) 
7776

$$$$
ETAM-pdb4obd-D-LYS-20:MSM-pdb4obd-D-MET-36
     RDKit          3D

 20 18  0  0  0  0  0  0  0  0999 V2000
    1.2465    0.8510   -0.0000 C   0  0  0  0  0  0  0  0  0  0  0  0
    2.0340    0.2675    0.1099 H   0  0  0  0  0  0  0  0  0  0  0  0
    1.1794    1.5173    0.7232 H   0  0  0  0  0  0  0  0  0  0  0  0
    1.3196    1.3694   -0.9560 H   0  0  0  0  0  0  0  0  0  0  0  0
    0.0000    0.0000    0.0000 C   0  0  0  0  0  0  0  0  0  0  0  0
    0.0042   -0.5913   -0.8163 H   0  0  0  0  0  0  0  0  0  0  0  0
    0.0041   -0.5914    0.8170 H   0  0  0  0  0  0  0  0  0  0  0  0
   -1.2465    0.8125    0.0000 N   0  0  0  0  0  4  0  0  0  0  0  0
   -1.6397    0.8161    0.9191 H   0  0  0  0  0  0  0  0  0  0  0  0
   -1.0315    1.7490   -0.2764 H   0  0  0  0  0  0  0  0  0  0  0  0
   -1.9013    0.4154   -0.6428 H   0  0  0  0  0  0  0  0  0  0  0  0
   -2.6558   -1.5600    3.8636 C   0  0  0  0  0  0  0  0  0  0  0  0
   -2.6738   -0.9247    4.6701 H   0  0  0  0  0  0  0  0  0  0  0  0
   -2.9491   -2.4728    4.2319 H   0  0  0  0  0  0  0  0  0  0  0  0
   -3.3937   -1.2224    3.1358 H   0  0  0  0  0  0  0  0  0  0  0  0
   -0.9896   -1.6610    3.1749 S   0  0  0  0  0  0  0  0  0  0  0  0
   -1.2268   -2.7862    1.7995 C   0  0  0  0  0  0  0  0  0  0  0  0
   -1.5164   -3.6802    2.1443 H   0  0  0  0  0  0  0  0  0  0  0  0
   -1.9300   -2.4227    1.1865 H   0  0  0  0  0  0  0  0  0  0  0  0
   -0.3671   -2.8860    1.2965 H   0  0  0  0  0  0  0  0  0  0  0  0
  1  5  1  0
  5  8  1  0
  1  2  1  0
  1  3  1  0
  1  4  1  0
  5  6  1  0
  5  7  1  0
  8  9  1  0
  8 10  1  0
  8 11  1  0
 12 16  1  0
 16 17  1  0
 12 13  1  0
 12 14  1  0
 12 15  1  0
 17 18  1  0
 17 19  1  0
 17 20  1  0
M  CHG  1   8   1
M  END
>  <PDB_ID>  (1247) 
pdb4obd

>  <RESIDUE_NAME>  (1247) 
LYS   MET

>  <FRAG_NAME>  (1247) 
ETAM   MSM

>  <FRAG_ATOM_NUM>  (1247) 
fragi: 11  fragj: 9

>  <atom.prop.CHAIN_ID>  (1247) 
A A A A A A A A A A A Z Z Z Z Z Z Z Z Z

>  <atom.prop.IS_HEAVY_ATOM>  (1247) 
1 0 0 0 1 0 0 1 0 0 0 1 0 0 0 1 1 0 0 0

>  <DIFUSE_FUNC_ATOM>  (1247) 
n/a

>  <FINAL_SINGLE_POINT_ENERGY>  (1247) 
0

>  <NONCOV_INTER_ENERGY_QM>  (1247) 
0

>  <FF_Energy>  (1247) 
-2.41

>  <QM_Energy>  (1247) 
-8.08

>  <source>  (1247) 
ETAM_MSM

>  <Index>  (1247) 
7786

$$$$
ETAM-pdb3qg2-B-LYS-372:MSM-pdb3qg2-B-MET-604
     RDKit          3D

 20 18  0  0  0  0  0  0  0  0999 V2000
    1.2372    0.8833    0.0000 C   0  0  0  0  0  0  0  0  0  0  0  0
    1.2240    1.4518    0.8208 H   0  0  0  0  0  0  0  0  0  0  0  0
    1.2149    1.4646   -0.8123 H   0  0  0  0  0  0  0  0  0  0  0  0
    2.1641    0.3098   -0.0092 H   0  0  0  0  0  0  0  0  0  0  0  0
    0.0000    0.0000    0.0000 C   0  0  0  0  0  0  0  0  0  0  0  0
    0.0133   -0.5768   -0.8162 H   0  0  0  0  0  0  0  0  0  0  0  0
    0.0129   -0.5773    0.8161 H   0  0  0  0  0  0  0  0  0  0  0  0
   -1.2372    0.8221    0.0000 N   0  0  0  0  0  4  0  0  0  0  0  0
   -1.5578    0.9414    0.9397 H   0  0  0  0  0  0  0  0  0  0  0  0
   -1.0425    1.7160   -0.4029 H   0  0  0  0  0  0  0  0  0  0  0  0
   -1.9432    0.3613   -0.5371 H   0  0  0  0  0  0  0  0  0  0  0  0
   -3.1701    3.8250    1.6216 C   0  0  0  0  0  0  0  0  0  0  0  0
   -3.0796    3.2251    2.4442 H   0  0  0  0  0  0  0  0  0  0  0  0
   -3.7604    3.3126    0.9621 H   0  0  0  0  0  0  0  0  0  0  0  0
   -3.6864    4.7393    1.9140 H   0  0  0  0  0  0  0  0  0  0  0  0
   -1.5443    4.1598    0.8944 S   0  0  0  0  0  0  0  0  0  0  0  0
   -2.0280    4.8922   -0.6357 C   0  0  0  0  0  0  0  0  0  0  0  0
   -1.2478    4.9252   -1.2693 H   0  0  0  0  0  0  0  0  0  0  0  0
   -2.7647    4.3560   -1.0620 H   0  0  0  0  0  0  0  0  0  0  0  0
   -2.3595    5.8295   -0.4850 H   0  0  0  0  0  0  0  0  0  0  0  0
  1  5  1  0
  5  8  1  0
  1  2  1  0
  1  3  1  0
  1  4  1  0
  5  6  1  0
  5  7  1  0
  8  9  1  0
  8 10  1  0
  8 11  1  0
 12 16  1  0
 16 17  1  0
 12 13  1  0
 12 14  1  0
 12 15  1  0
 17 18  1  0
 17 19  1  0
 17 20  1  0
M  CHG  1   8   1
M  END
>  <PDB_ID>  (1248) 
pdb3qg2

>  <RESIDUE_NAME>  (1248) 
LYS   MET

>  <FRAG_NAME>  (1248) 
ETAM   MSM

>  <FRAG_ATOM_NUM>  (1248) 
fragi: 11  fragj: 9

>  <atom.prop.CHAIN_ID>  (1248) 
A A A A A A A A A A A Z Z Z Z Z Z Z Z Z

>  <atom.prop.IS_HEAVY_ATOM>  (1248) 
1 0 0 0 1 0 0 1 0 0 0 1 0 0 0 1 1 0 0 0

>  <DIFUSE_FUNC_ATOM>  (1248) 
n/a

>  <FINAL_SINGLE_POINT_ENERGY>  (1248) 
0

>  <NONCOV_INTER_ENERGY_QM>  (1248) 
0

>  <FF_Energy>  (1248) 
-4.55

>  <QM_Energy>  (1248) 
-11.79

>  <source>  (1248) 
ETAM_MSM

>  <Index>  (1248) 
7788

$$$$
ETAM-pdb3qgt-A-LYS-372:MSM-pdb3qgt-A-MET-604
     RDKit          3D

 20 18  0  0  0  0  0  0  0  0999 V2000
    1.2526    0.8605    0.0000 C   0  0  0  0  0  0  0  0  0  0  0  0
    1.2557    1.4165    0.8299 H   0  0  0  0  0  0  0  0  0  0  0  0
    1.2287    1.4561   -0.8023 H   0  0  0  0  0  0  0  0  0  0  0  0
    2.1670    0.2678   -0.0287 H   0  0  0  0  0  0  0  0  0  0  0  0
    0.0000    0.0000    0.0000 C   0  0  0  0  0  0  0  0  0  0  0  0
    0.0061   -0.5869   -0.8160 H   0  0  0  0  0  0  0  0  0  0  0  0
    0.0065   -0.5875    0.8163 H   0  0  0  0  0  0  0  0  0  0  0  0
   -1.2526    0.8162   -0.0000 N   0  0  0  0  0  4  0  0  0  0  0  0
   -1.0158    1.7806    0.1041 H   0  0  0  0  0  0  0  0  0  0  0  0
   -1.7337    0.6791   -0.8641 H   0  0  0  0  0  0  0  0  0  0  0  0
   -1.8333    0.5270    0.7594 H   0  0  0  0  0  0  0  0  0  0  0  0
   -2.9014    3.7534    1.6726 C   0  0  0  0  0  0  0  0  0  0  0  0
   -2.6324    3.2673    2.5300 H   0  0  0  0  0  0  0  0  0  0  0  0
   -3.5497    3.1311    1.1860 H   0  0  0  0  0  0  0  0  0  0  0  0
   -3.4294    4.6683    1.9417 H   0  0  0  0  0  0  0  0  0  0  0  0
   -1.4570    4.0936    0.6524 S   0  0  0  0  0  0  0  0  0  0  0  0
   -2.2577    4.6791   -0.8053 C   0  0  0  0  0  0  0  0  0  0  0  0
   -2.9859    4.0426   -1.0841 H   0  0  0  0  0  0  0  0  0  0  0  0
   -2.6674    5.5823   -0.6400 H   0  0  0  0  0  0  0  0  0  0  0  0
   -1.5970    4.7600   -1.5594 H   0  0  0  0  0  0  0  0  0  0  0  0
  1  5  1  0
  5  8  1  0
  1  2  1  0
  1  3  1  0
  1  4  1  0
  5  6  1  0
  5  7  1  0
  8  9  1  0
  8 10  1  0
  8 11  1  0
 12 16  1  0
 16 17  1  0
 12 13  1  0
 12 14  1  0
 12 15  1  0
 17 18  1  0
 17 19  1  0
 17 20  1  0
M  CHG  1   8   1
M  END
>  <PDB_ID>  (1249) 
pdb3qgt

>  <RESIDUE_NAME>  (1249) 
LYS   MET

>  <FRAG_NAME>  (1249) 
ETAM   MSM

>  <FRAG_ATOM_NUM>  (1249) 
fragi: 11  fragj: 9

>  <atom.prop.CHAIN_ID>  (1249) 
A A A A A A A A A A A Z Z Z Z Z Z Z Z Z

>  <atom.prop.IS_HEAVY_ATOM>  (1249) 
1 0 0 0 1 0 0 1 0 0 0 1 0 0 0 1 1 0 0 0

>  <DIFUSE_FUNC_ATOM>  (1249) 
n/a

>  <FINAL_SINGLE_POINT_ENERGY>  (1249) 
0

>  <NONCOV_INTER_ENERGY_QM>  (1249) 
0

>  <FF_Energy>  (1249) 
-4.85

>  <QM_Energy>  (1249) 
-14.78

>  <source>  (1249) 
ETAM_MSM

>  <Index>  (1249) 
7790

$$$$
ETAM-pdb3qhe-A-LYS-716:MSM-pdb3qhe-A-MET-720
     RDKit          3D

 20 18  0  0  0  0  0  0  0  0999 V2000
    1.2689    0.8687   -0.0000 C   0  0  0  0  0  0  0  0  0  0  0  0
    1.1750    1.5606   -0.7119 H   0  0  0  0  0  0  0  0  0  0  0  0
    2.0501    0.2818   -0.1968 H   0  0  0  0  0  0  0  0  0  0  0  0
    1.4391    1.3698    0.9530 H   0  0  0  0  0  0  0  0  0  0  0  0
    0.0000    0.0000    0.0000 C   0  0  0  0  0  0  0  0  0  0  0  0
    0.0168   -0.5901   -0.8162 H   0  0  0  0  0  0  0  0  0  0  0  0
    0.0166   -0.5911    0.8165 H   0  0  0  0  0  0  0  0  0  0  0  0
   -1.2689    0.7973    0.0000 N   0  0  0  0  0  4  0  0  0  0  0  0
   -1.4882    1.0614    0.9365 H   0  0  0  0  0  0  0  0  0  0  0  0
   -1.1423    1.6128   -0.5611 H   0  0  0  0  0  0  0  0  0  0  0  0
   -2.0057    0.2391   -0.3755 H   0  0  0  0  0  0  0  0  0  0  0  0
   -0.4923   -0.1796    4.6699 C   0  0  0  0  0  0  0  0  0  0  0  0
   -1.3247    0.2935    5.0051 H   0  0  0  0  0  0  0  0  0  0  0  0
    0.1313    0.5348    4.3087 H   0  0  0  0  0  0  0  0  0  0  0  0
   -0.0090   -0.6842    5.5066 H   0  0  0  0  0  0  0  0  0  0  0  0
   -0.9113   -1.3708    3.3822 S   0  0  0  0  0  0  0  0  0  0  0  0
   -1.9481   -2.5270    4.3072 C   0  0  0  0  0  0  0  0  0  0  0  0
   -1.4130   -3.3384    4.5323 H   0  0  0  0  0  0  0  0  0  0  0  0
   -2.2624   -2.0864    5.1461 H   0  0  0  0  0  0  0  0  0  0  0  0
   -2.7323   -2.7843    3.7465 H   0  0  0  0  0  0  0  0  0  0  0  0
  1  5  1  0
  5  8  1  0
  1  2  1  0
  1  3  1  0
  1  4  1  0
  5  6  1  0
  5  7  1  0
  8  9  1  0
  8 10  1  0
  8 11  1  0
 12 16  1  0
 16 17  1  0
 12 13  1  0
 12 14  1  0
 12 15  1  0
 17 18  1  0
 17 19  1  0
 17 20  1  0
M  CHG  1   8   1
M  END
>  <PDB_ID>  (1250) 
pdb3qhe

>  <RESIDUE_NAME>  (1250) 
LYS   MET

>  <FRAG_NAME>  (1250) 
ETAM   MSM

>  <FRAG_ATOM_NUM>  (1250) 
fragi: 11  fragj: 9

>  <atom.prop.CHAIN_ID>  (1250) 
A A A A A A A A A A A Z Z Z Z Z Z Z Z Z

>  <atom.prop.IS_HEAVY_ATOM>  (1250) 
1 0 0 0 1 0 0 1 0 0 0 1 0 0 0 1 1 0 0 0

>  <DIFUSE_FUNC_ATOM>  (1250) 
n/a

>  <FINAL_SINGLE_POINT_ENERGY>  (1250) 
0

>  <NONCOV_INTER_ENERGY_QM>  (1250) 
0

>  <FF_Energy>  (1250) 
-4.27

>  <QM_Energy>  (1250) 
-10.2

>  <source>  (1250) 
ETAM_MSM

>  <Index>  (1250) 
7791

$$$$
ETAM-pdb3qbp-B-LYS-187:MSM-pdb3qbp-B-MET-303
     RDKit          3D

 20 18  0  0  0  0  0  0  0  0999 V2000
    1.2582    0.7631   -0.0000 C   0  0  0  0  0  0  0  0  0  0  0  0
    1.1985    1.5316    0.6269 H   0  0  0  0  0  0  0  0  0  0  0  0
    1.4725    1.0794   -0.9177 H   0  0  0  0  0  0  0  0  0  0  0  0
    2.0890    0.1400    0.3307 H   0  0  0  0  0  0  0  0  0  0  0  0
    0.0000    0.0000    0.0000 C   0  0  0  0  0  0  0  0  0  0  0  0
   -0.0418   -0.6109   -0.8159 H   0  0  0  0  0  0  0  0  0  0  0  0
   -0.0420   -0.6108    0.8163 H   0  0  0  0  0  0  0  0  0  0  0  0
   -1.2582    0.8409    0.0000 N   0  0  0  0  0  4  0  0  0  0  0  0
   -1.0001    1.8010   -0.0419 H   0  0  0  0  0  0  0  0  0  0  0  0
   -1.8054    0.5960   -0.7952 H   0  0  0  0  0  0  0  0  0  0  0  0
   -1.7650    0.6570    0.8373 H   0  0  0  0  0  0  0  0  0  0  0  0
   -3.6974    4.1850   -1.8945 C   0  0  0  0  0  0  0  0  0  0  0  0
   -3.3184    4.3959   -0.9588 H   0  0  0  0  0  0  0  0  0  0  0  0
   -4.6989    3.9969   -1.7331 H   0  0  0  0  0  0  0  0  0  0  0  0
   -3.6054    5.0753   -2.5165 H   0  0  0  0  0  0  0  0  0  0  0  0
   -2.8908    2.7631   -2.6002 S   0  0  0  0  0  0  0  0  0  0  0  0
   -3.8758    2.5651   -4.0343 C   0  0  0  0  0  0  0  0  0  0  0  0
   -3.8437    1.6116   -4.3596 H   0  0  0  0  0  0  0  0  0  0  0  0
   -4.8369    2.8002   -3.8419 H   0  0  0  0  0  0  0  0  0  0  0  0
   -3.5473    3.1623   -4.7770 H   0  0  0  0  0  0  0  0  0  0  0  0
  1  5  1  0
  5  8  1  0
  1  2  1  0
  1  3  1  0
  1  4  1  0
  5  6  1  0
  5  7  1  0
  8  9  1  0
  8 10  1  0
  8 11  1  0
 12 16  1  0
 16 17  1  0
 12 13  1  0
 12 14  1  0
 12 15  1  0
 17 18  1  0
 17 19  1  0
 17 20  1  0
M  CHG  1   8   1
M  END
>  <PDB_ID>  (1251) 
pdb3qbp

>  <RESIDUE_NAME>  (1251) 
LYS   MET

>  <FRAG_NAME>  (1251) 
ETAM   MSM

>  <FRAG_ATOM_NUM>  (1251) 
fragi: 11  fragj: 9

>  <atom.prop.CHAIN_ID>  (1251) 
A A A A A A A A A A A Z Z Z Z Z Z Z Z Z

>  <atom.prop.IS_HEAVY_ATOM>  (1251) 
1 0 0 0 1 0 0 1 0 0 0 1 0 0 0 1 1 0 0 0

>  <DIFUSE_FUNC_ATOM>  (1251) 
n/a

>  <FINAL_SINGLE_POINT_ENERGY>  (1251) 
0

>  <NONCOV_INTER_ENERGY_QM>  (1251) 
0

>  <FF_Energy>  (1251) 
-4.97

>  <QM_Energy>  (1251) 
-11.44

>  <source>  (1251) 
ETAM_MSM

>  <Index>  (1251) 
7797

$$$$
ETAM-pdb3qmb-A-LYS-206:MSM-pdb3qmb-A-MET-172
     RDKit          3D

 20 18  0  0  0  0  0  0  0  0999 V2000
    1.2317    0.9195    0.0000 C   0  0  0  0  0  0  0  0  0  0  0  0
    1.5465    1.0315    0.9359 H   0  0  0  0  0  0  0  0  0  0  0  0
    0.9751    1.7969   -0.3884 H   0  0  0  0  0  0  0  0  0  0  0  0
    2.0562    0.5166   -0.5882 H   0  0  0  0  0  0  0  0  0  0  0  0
    0.0000    0.0000    0.0000 C   0  0  0  0  0  0  0  0  0  0  0  0
    0.0223   -0.5603   -0.8167 H   0  0  0  0  0  0  0  0  0  0  0  0
    0.0222   -0.5601    0.8167 H   0  0  0  0  0  0  0  0  0  0  0  0
   -1.2317    0.8364   -0.0000 N   0  0  0  0  0  4  0  0  0  0  0  0
   -1.5747    0.9206    0.9348 H   0  0  0  0  0  0  0  0  0  0  0  0
   -1.0168    1.7430   -0.3610 H   0  0  0  0  0  0  0  0  0  0  0  0
   -1.9261    0.4036   -0.5741 H   0  0  0  0  0  0  0  0  0  0  0  0
   -4.4404    2.5595   -0.0172 C   0  0  0  0  0  0  0  0  0  0  0  0
   -4.0489    1.8888    0.6527 H   0  0  0  0  0  0  0  0  0  0  0  0
   -4.5045    2.0509   -0.9066 H   0  0  0  0  0  0  0  0  0  0  0  0
   -5.4517    2.8073    0.3048 H   0  0  0  0  0  0  0  0  0  0  0  0
   -3.3787    4.0057   -0.1766 S   0  0  0  0  0  0  0  0  0  0  0  0
   -3.4975    4.8003    1.4227 C   0  0  0  0  0  0  0  0  0  0  0  0
   -2.7841    5.4979    1.5052 H   0  0  0  0  0  0  0  0  0  0  0  0
   -4.3960    5.2317    1.5177 H   0  0  0  0  0  0  0  0  0  0  0  0
   -3.3791    4.1186    2.1468 H   0  0  0  0  0  0  0  0  0  0  0  0
  1  5  1  0
  5  8  1  0
  1  2  1  0
  1  3  1  0
  1  4  1  0
  5  6  1  0
  5  7  1  0
  8  9  1  0
  8 10  1  0
  8 11  1  0
 12 16  1  0
 16 17  1  0
 12 13  1  0
 12 14  1  0
 12 15  1  0
 17 18  1  0
 17 19  1  0
 17 20  1  0
M  CHG  1   8   1
M  END
>  <PDB_ID>  (1252) 
pdb3qmb

>  <RESIDUE_NAME>  (1252) 
LYS   MET

>  <FRAG_NAME>  (1252) 
ETAM   MSM

>  <FRAG_ATOM_NUM>  (1252) 
fragi: 11  fragj: 9

>  <atom.prop.CHAIN_ID>  (1252) 
A A A A A A A A A A A Z Z Z Z Z Z Z Z Z

>  <atom.prop.IS_HEAVY_ATOM>  (1252) 
1 0 0 0 1 0 0 1 0 0 0 1 0 0 0 1 1 0 0 0

>  <DIFUSE_FUNC_ATOM>  (1252) 
n/a

>  <FINAL_SINGLE_POINT_ENERGY>  (1252) 
0

>  <NONCOV_INTER_ENERGY_QM>  (1252) 
0

>  <FF_Energy>  (1252) 
-2.61

>  <QM_Energy>  (1252) 
-7.88

>  <source>  (1252) 
ETAM_MSM

>  <Index>  (1252) 
7812

$$$$
ETAM-pdb4omb-B-LYS-303:MSM-pdb4omb-B-MET-57
     RDKit          3D

 20 18  0  0  0  0  0  0  0  0999 V2000
    1.2652    0.8581    0.0000 C   0  0  0  0  0  0  0  0  0  0  0  0
    1.3570    1.2795    0.8858 H   0  0  0  0  0  0  0  0  0  0  0  0
    1.1899    1.5254   -0.7204 H   0  0  0  0  0  0  0  0  0  0  0  0
    2.1307    0.2224   -0.1870 H   0  0  0  0  0  0  0  0  0  0  0  0
    0.0000    0.0000    0.0000 C   0  0  0  0  0  0  0  0  0  0  0  0
    0.0183   -0.5991   -0.8164 H   0  0  0  0  0  0  0  0  0  0  0  0
    0.0179   -0.5992    0.8165 H   0  0  0  0  0  0  0  0  0  0  0  0
   -1.2652    0.7829    0.0000 N   0  0  0  0  0  4  0  0  0  0  0  0
   -1.0581    1.7490   -0.1523 H   0  0  0  0  0  0  0  0  0  0  0  0
   -1.8618    0.4500   -0.7298 H   0  0  0  0  0  0  0  0  0  0  0  0
   -1.7223    0.6738    0.8816 H   0  0  0  0  0  0  0  0  0  0  0  0
   -1.6097   -4.2640    2.2136 C   0  0  0  0  0  0  0  0  0  0  0  0
   -2.2746   -4.0395    2.9654 H   0  0  0  0  0  0  0  0  0  0  0  0
   -1.0045   -4.9988    2.6025 H   0  0  0  0  0  0  0  0  0  0  0  0
   -2.1636   -4.6774    1.3707 H   0  0  0  0  0  0  0  0  0  0  0  0
   -0.6072   -2.7799    1.8006 S   0  0  0  0  0  0  0  0  0  0  0  0
   -1.7307   -1.4521    2.3319 C   0  0  0  0  0  0  0  0  0  0  0  0
   -2.6661   -1.7960    2.3146 H   0  0  0  0  0  0  0  0  0  0  0  0
   -1.4855   -1.1735    3.2571 H   0  0  0  0  0  0  0  0  0  0  0  0
   -1.6374   -0.6817    1.7059 H   0  0  0  0  0  0  0  0  0  0  0  0
  1  5  1  0
  5  8  1  0
  1  2  1  0
  1  3  1  0
  1  4  1  0
  5  6  1  0
  5  7  1  0
  8  9  1  0
  8 10  1  0
  8 11  1  0
 12 16  1  0
 16 17  1  0
 12 13  1  0
 12 14  1  0
 12 15  1  0
 17 18  1  0
 17 19  1  0
 17 20  1  0
M  CHG  1   8   1
M  END
>  <PDB_ID>  (1253) 
pdb4omb

>  <RESIDUE_NAME>  (1253) 
LYS   MET

>  <FRAG_NAME>  (1253) 
ETAM   MSM

>  <FRAG_ATOM_NUM>  (1253) 
fragi: 11  fragj: 9

>  <atom.prop.CHAIN_ID>  (1253) 
A A A A A A A A A A A Z Z Z Z Z Z Z Z Z

>  <atom.prop.IS_HEAVY_ATOM>  (1253) 
1 0 0 0 1 0 0 1 0 0 0 1 0 0 0 1 1 0 0 0

>  <DIFUSE_FUNC_ATOM>  (1253) 
n/a

>  <FINAL_SINGLE_POINT_ENERGY>  (1253) 
0

>  <NONCOV_INTER_ENERGY_QM>  (1253) 
0

>  <FF_Energy>  (1253) 
9.84

>  <QM_Energy>  (1253) 
0.46

>  <source>  (1253) 
ETAM_MSM

>  <Index>  (1253) 
7824

$$$$
ETAM-pdb4omb-D-LYS-303:MSM-pdb4omb-D-MET-57
     RDKit          3D

 20 18  0  0  0  0  0  0  0  0999 V2000
    1.2457    0.8686   -0.0000 C   0  0  0  0  0  0  0  0  0  0  0  0
    2.0450    0.2887    0.0646 H   0  0  0  0  0  0  0  0  0  0  0  0
    1.2001    1.5004    0.7600 H   0  0  0  0  0  0  0  0  0  0  0  0
    1.3166    1.4464   -0.9216 H   0  0  0  0  0  0  0  0  0  0  0  0
    0.0000    0.0000    0.0000 C   0  0  0  0  0  0  0  0  0  0  0  0
    0.0099   -0.5838   -0.8158 H   0  0  0  0  0  0  0  0  0  0  0  0
    0.0095   -0.5841    0.8168 H   0  0  0  0  0  0  0  0  0  0  0  0
   -1.2457    0.8170    0.0000 N   0  0  0  0  0  4  0  0  0  0  0  0
   -1.8359    0.5199   -0.7496 H   0  0  0  0  0  0  0  0  0  0  0  0
   -1.7205    0.6957    0.8703 H   0  0  0  0  0  0  0  0  0  0  0  0
   -1.0095    1.7803   -0.1208 H   0  0  0  0  0  0  0  0  0  0  0  0
   -3.0811    2.4435    3.6428 C   0  0  0  0  0  0  0  0  0  0  0  0
   -3.4023    1.6405    4.2076 H   0  0  0  0  0  0  0  0  0  0  0  0
   -3.9356    2.7839    3.1725 H   0  0  0  0  0  0  0  0  0  0  0  0
   -2.7248    3.2212    4.3182 H   0  0  0  0  0  0  0  0  0  0  0  0
   -1.8608    1.8804    2.3926 S   0  0  0  0  0  0  0  0  0  0  0  0
   -1.1731    0.4201    3.1981 C   0  0  0  0  0  0  0  0  0  0  0  0
   -1.9140   -0.2109    3.4240 H   0  0  0  0  0  0  0  0  0  0  0  0
   -0.5288   -0.0258    2.5779 H   0  0  0  0  0  0  0  0  0  0  0  0
   -0.7004    0.6971    4.0333 H   0  0  0  0  0  0  0  0  0  0  0  0
  1  5  1  0
  5  8  1  0
  1  2  1  0
  1  3  1  0
  1  4  1  0
  5  6  1  0
  5  7  1  0
  8  9  1  0
  8 10  1  0
  8 11  1  0
 12 16  1  0
 16 17  1  0
 12 13  1  0
 12 14  1  0
 12 15  1  0
 17 18  1  0
 17 19  1  0
 17 20  1  0
M  CHG  1   8   1
M  END
>  <PDB_ID>  (1254) 
pdb4omb

>  <RESIDUE_NAME>  (1254) 
LYS   MET

>  <FRAG_NAME>  (1254) 
ETAM   MSM

>  <FRAG_ATOM_NUM>  (1254) 
fragi: 11  fragj: 9

>  <atom.prop.CHAIN_ID>  (1254) 
A A A A A A A A A A A Z Z Z Z Z Z Z Z Z

>  <atom.prop.IS_HEAVY_ATOM>  (1254) 
1 0 0 0 1 0 0 1 0 0 0 1 0 0 0 1 1 0 0 0

>  <DIFUSE_FUNC_ATOM>  (1254) 
n/a

>  <FINAL_SINGLE_POINT_ENERGY>  (1254) 
0

>  <NONCOV_INTER_ENERGY_QM>  (1254) 
0

>  <FF_Energy>  (1254) 
11.65

>  <QM_Energy>  (1254) 
-4.35

>  <source>  (1254) 
ETAM_MSM

>  <Index>  (1254) 
7825

$$$$
ETAM-pdb3qt5-A-LYS-21:MSM-pdb3qt5-A-MET-196
     RDKit          3D

 20 18  0  0  0  0  0  0  0  0999 V2000
    1.2581    0.8458    0.0000 C   0  0  0  0  0  0  0  0  0  0  0  0
    2.0543    0.2423   -0.0933 H   0  0  0  0  0  0  0  0  0  0  0  0
    1.3198    1.3336    0.8744 H   0  0  0  0  0  0  0  0  0  0  0  0
    1.2954    1.5820   -0.8030 H   0  0  0  0  0  0  0  0  0  0  0  0
    0.0000    0.0000    0.0000 C   0  0  0  0  0  0  0  0  0  0  0  0
    0.0156   -0.6048   -0.8164 H   0  0  0  0  0  0  0  0  0  0  0  0
    0.0149   -0.6049    0.8162 H   0  0  0  0  0  0  0  0  0  0  0  0
   -1.2581    0.7781    0.0000 N   0  0  0  0  0  4  0  0  0  0  0  0
   -2.0254    0.1758    0.2259 H   0  0  0  0  0  0  0  0  0  0  0  0
   -1.2002    1.5105    0.6803 H   0  0  0  0  0  0  0  0  0  0  0  0
   -1.4063    1.1779   -0.9052 H   0  0  0  0  0  0  0  0  0  0  0  0
   -2.5169    2.4112   -4.7451 C   0  0  0  0  0  0  0  0  0  0  0  0
   -1.6271    2.0919   -5.1251 H   0  0  0  0  0  0  0  0  0  0  0  0
   -2.7272    3.2962   -5.2033 H   0  0  0  0  0  0  0  0  0  0  0  0
   -3.2990    1.6821   -4.9568 H   0  0  0  0  0  0  0  0  0  0  0  0
   -2.3675    2.6645   -2.9591 S   0  0  0  0  0  0  0  0  0  0  0  0
   -3.9664    3.3270   -2.4786 C   0  0  0  0  0  0  0  0  0  0  0  0
   -3.8608    3.8911   -1.6597 H   0  0  0  0  0  0  0  0  0  0  0  0
   -4.3326    3.8859   -3.2230 H   0  0  0  0  0  0  0  0  0  0  0  0
   -4.5951    2.5738   -2.2860 H   0  0  0  0  0  0  0  0  0  0  0  0
  1  5  1  0
  5  8  1  0
  1  2  1  0
  1  3  1  0
  1  4  1  0
  5  6  1  0
  5  7  1  0
  8  9  1  0
  8 10  1  0
  8 11  1  0
 12 16  1  0
 16 17  1  0
 12 13  1  0
 12 14  1  0
 12 15  1  0
 17 18  1  0
 17 19  1  0
 17 20  1  0
M  CHG  1   8   1
M  END
>  <PDB_ID>  (1255) 
pdb3qt5

>  <RESIDUE_NAME>  (1255) 
LYS   MET

>  <FRAG_NAME>  (1255) 
ETAM   MSM

>  <FRAG_ATOM_NUM>  (1255) 
fragi: 11  fragj: 9

>  <atom.prop.CHAIN_ID>  (1255) 
A A A A A A A A A A A Z Z Z Z Z Z Z Z Z

>  <atom.prop.IS_HEAVY_ATOM>  (1255) 
1 0 0 0 1 0 0 1 0 0 0 1 0 0 0 1 1 0 0 0

>  <DIFUSE_FUNC_ATOM>  (1255) 
n/a

>  <FINAL_SINGLE_POINT_ENERGY>  (1255) 
0

>  <NONCOV_INTER_ENERGY_QM>  (1255) 
0

>  <FF_Energy>  (1255) 
-5.02

>  <QM_Energy>  (1255) 
-13.51

>  <source>  (1255) 
ETAM_MSM

>  <Index>  (1255) 
7871

$$$$
ETAM-pdb4on1-B-LYS-299:MSM-pdb4on1-B-MET-223
     RDKit          3D

 20 18  0  0  0  0  0  0  0  0999 V2000
    1.2387    0.8768    0.0000 C   0  0  0  0  0  0  0  0  0  0  0  0
    1.2092    1.4756    0.7922 H   0  0  0  0  0  0  0  0  0  0  0  0
    1.2562    1.4088   -0.8389 H   0  0  0  0  0  0  0  0  0  0  0  0
    2.1489    0.2793    0.0519 H   0  0  0  0  0  0  0  0  0  0  0  0
    0.0000    0.0000    0.0000 C   0  0  0  0  0  0  0  0  0  0  0  0
    0.0110   -0.5795   -0.8164 H   0  0  0  0  0  0  0  0  0  0  0  0
    0.0103   -0.5799    0.8166 H   0  0  0  0  0  0  0  0  0  0  0  0
   -1.2387    0.8220    0.0000 N   0  0  0  0  0  4  0  0  0  0  0  0
   -1.7492    0.6539    0.8431 H   0  0  0  0  0  0  0  0  0  0  0  0
   -0.9948    1.7903   -0.0555 H   0  0  0  0  0  0  0  0  0  0  0  0
   -1.8028    0.5738   -0.7878 H   0  0  0  0  0  0  0  0  0  0  0  0
    2.0936    4.6515    0.8112 C   0  0  0  0  0  0  0  0  0  0  0  0
    2.6699    4.1626    0.1167 H   0  0  0  0  0  0  0  0  0  0  0  0
    2.1350    4.0704    1.6561 H   0  0  0  0  0  0  0  0  0  0  0  0
    2.5587    5.6128    1.0297 H   0  0  0  0  0  0  0  0  0  0  0  0
    0.3938    4.8115    0.2306 S   0  0  0  0  0  0  0  0  0  0  0  0
   -0.4352    5.2077    1.7613 C   0  0  0  0  0  0  0  0  0  0  0  0
   -0.1147    6.0945    2.1002 H   0  0  0  0  0  0  0  0  0  0  0  0
   -1.4249    5.2515    1.6098 H   0  0  0  0  0  0  0  0  0  0  0  0
   -0.2377    4.5032    2.4460 H   0  0  0  0  0  0  0  0  0  0  0  0
  1  5  1  0
  5  8  1  0
  1  2  1  0
  1  3  1  0
  1  4  1  0
  5  6  1  0
  5  7  1  0
  8  9  1  0
  8 10  1  0
  8 11  1  0
 12 16  1  0
 16 17  1  0
 12 13  1  0
 12 14  1  0
 12 15  1  0
 17 18  1  0
 17 19  1  0
 17 20  1  0
M  CHG  1   8   1
M  END
>  <PDB_ID>  (1256) 
pdb4on1

>  <RESIDUE_NAME>  (1256) 
LYS   MET

>  <FRAG_NAME>  (1256) 
ETAM   MSM

>  <FRAG_ATOM_NUM>  (1256) 
fragi: 11  fragj: 9

>  <atom.prop.CHAIN_ID>  (1256) 
A A A A A A A A A A A Z Z Z Z Z Z Z Z Z

>  <atom.prop.IS_HEAVY_ATOM>  (1256) 
1 0 0 0 1 0 0 1 0 0 0 1 0 0 0 1 1 0 0 0

>  <DIFUSE_FUNC_ATOM>  (1256) 
n/a

>  <FINAL_SINGLE_POINT_ENERGY>  (1256) 
0

>  <NONCOV_INTER_ENERGY_QM>  (1256) 
0

>  <FF_Energy>  (1256) 
-3.71

>  <QM_Energy>  (1256) 
-8.96

>  <source>  (1256) 
ETAM_MSM

>  <Index>  (1256) 
7873

$$$$
ETAM-pdb3qtp-A-LYS-338:MSM-pdb3qtp-A-MET-334
     RDKit          3D

 20 18  0  0  0  0  0  0  0  0999 V2000
    1.2551    0.8786    0.0000 C   0  0  0  0  0  0  0  0  0  0  0  0
    1.3190    1.3386    0.8717 H   0  0  0  0  0  0  0  0  0  0  0  0
    1.1899    1.5217   -0.7462 H   0  0  0  0  0  0  0  0  0  0  0  0
    2.1463    0.2667   -0.1395 H   0  0  0  0  0  0  0  0  0  0  0  0
    0.0000    0.0000    0.0000 C   0  0  0  0  0  0  0  0  0  0  0  0
    0.0184   -0.5852   -0.8159 H   0  0  0  0  0  0  0  0  0  0  0  0
    0.0179   -0.5855    0.8167 H   0  0  0  0  0  0  0  0  0  0  0  0
   -1.2551    0.8038   -0.0000 N   0  0  0  0  0  4  0  0  0  0  0  0
   -1.9257    0.3700   -0.6004 H   0  0  0  0  0  0  0  0  0  0  0  0
   -1.6182    0.8500    0.9300 H   0  0  0  0  0  0  0  0  0  0  0  0
   -1.0569    1.7262   -0.3301 H   0  0  0  0  0  0  0  0  0  0  0  0
    0.2752   -0.0558    3.5565 C   0  0  0  0  0  0  0  0  0  0  0  0
    0.8320    0.7224    3.1904 H   0  0  0  0  0  0  0  0  0  0  0  0
    0.3859   -0.8166    2.8799 H   0  0  0  0  0  0  0  0  0  0  0  0
    0.7027   -0.3708    4.5084 H   0  0  0  0  0  0  0  0  0  0  0  0
   -1.4655    0.4195    3.6985 S   0  0  0  0  0  0  0  0  0  0  0  0
   -2.2077   -1.1738    4.0386 C   0  0  0  0  0  0  0  0  0  0  0  0
   -1.4926   -1.8352    4.2713 H   0  0  0  0  0  0  0  0  0  0  0  0
   -2.8452   -1.0910    4.8067 H   0  0  0  0  0  0  0  0  0  0  0  0
   -2.7034   -1.4935    3.2294 H   0  0  0  0  0  0  0  0  0  0  0  0
  1  5  1  0
  5  8  1  0
  1  2  1  0
  1  3  1  0
  1  4  1  0
  5  6  1  0
  5  7  1  0
  8  9  1  0
  8 10  1  0
  8 11  1  0
 12 16  1  0
 16 17  1  0
 12 13  1  0
 12 14  1  0
 12 15  1  0
 17 18  1  0
 17 19  1  0
 17 20  1  0
M  CHG  1   8   1
M  END
>  <PDB_ID>  (1257) 
pdb3qtp

>  <RESIDUE_NAME>  (1257) 
LYS   MET

>  <FRAG_NAME>  (1257) 
ETAM   MSM

>  <FRAG_ATOM_NUM>  (1257) 
fragi: 11  fragj: 9

>  <atom.prop.CHAIN_ID>  (1257) 
A A A A A A A A A A A Z Z Z Z Z Z Z Z Z

>  <atom.prop.IS_HEAVY_ATOM>  (1257) 
1 0 0 0 1 0 0 1 0 0 0 1 0 0 0 1 1 0 0 0

>  <DIFUSE_FUNC_ATOM>  (1257) 
n/a

>  <FINAL_SINGLE_POINT_ENERGY>  (1257) 
0

>  <NONCOV_INTER_ENERGY_QM>  (1257) 
0

>  <FF_Energy>  (1257) 
-3.84

>  <QM_Energy>  (1257) 
-12.13

>  <source>  (1257) 
ETAM_MSM

>  <Index>  (1257) 
7882

$$$$
ETAM-pdb3qvc-A-LYS-126:MSM-pdb3qvc-A-MET-189
     RDKit          3D

 20 18  0  0  0  0  0  0  0  0999 V2000
    1.2683    0.8767    0.0000 C   0  0  0  0  0  0  0  0  0  0  0  0
    1.3211    1.3374    0.8571 H   0  0  0  0  0  0  0  0  0  0  0  0
    1.2246    1.4763   -0.7670 H   0  0  0  0  0  0  0  0  0  0  0  0
    2.1197    0.2047   -0.1069 H   0  0  0  0  0  0  0  0  0  0  0  0
    0.0000    0.0000    0.0000 C   0  0  0  0  0  0  0  0  0  0  0  0
    0.0396   -0.6037   -0.8164 H   0  0  0  0  0  0  0  0  0  0  0  0
    0.0391   -0.6042    0.8163 H   0  0  0  0  0  0  0  0  0  0  0  0
   -1.2683    0.7472    0.0000 N   0  0  0  0  0  4  0  0  0  0  0  0
   -1.7320    0.6296    0.8812 H   0  0  0  0  0  0  0  0  0  0  0  0
   -1.0887    1.7223   -0.1495 H   0  0  0  0  0  0  0  0  0  0  0  0
   -1.8630    0.4077   -0.7317 H   0  0  0  0  0  0  0  0  0  0  0  0
   -1.9247   -1.4949    3.4530 C   0  0  0  0  0  0  0  0  0  0  0  0
   -1.7517   -1.8471    2.5103 H   0  0  0  0  0  0  0  0  0  0  0  0
   -2.9176   -1.2603    3.4918 H   0  0  0  0  0  0  0  0  0  0  0  0
   -1.7292   -2.2975    4.1642 H   0  0  0  0  0  0  0  0  0  0  0  0
   -0.9055    0.0212    3.7586 S   0  0  0  0  0  0  0  0  0  0  0  0
   -2.1303    1.1361    4.4748 C   0  0  0  0  0  0  0  0  0  0  0  0
   -1.7486    2.0583    4.5207 H   0  0  0  0  0  0  0  0  0  0  0  0
   -2.9478    1.1386    3.9015 H   0  0  0  0  0  0  0  0  0  0  0  0
   -2.3639    0.8211    5.3936 H   0  0  0  0  0  0  0  0  0  0  0  0
  1  5  1  0
  5  8  1  0
  1  2  1  0
  1  3  1  0
  1  4  1  0
  5  6  1  0
  5  7  1  0
  8  9  1  0
  8 10  1  0
  8 11  1  0
 12 16  1  0
 16 17  1  0
 12 13  1  0
 12 14  1  0
 12 15  1  0
 17 18  1  0
 17 19  1  0
 17 20  1  0
M  CHG  1   8   1
M  END
>  <PDB_ID>  (1258) 
pdb3qvc

>  <RESIDUE_NAME>  (1258) 
LYS   MET

>  <FRAG_NAME>  (1258) 
ETAM   MSM

>  <FRAG_ATOM_NUM>  (1258) 
fragi: 11  fragj: 9

>  <atom.prop.CHAIN_ID>  (1258) 
A A A A A A A A A A A Z Z Z Z Z Z Z Z Z

>  <atom.prop.IS_HEAVY_ATOM>  (1258) 
1 0 0 0 1 0 0 1 0 0 0 1 0 0 0 1 1 0 0 0

>  <DIFUSE_FUNC_ATOM>  (1258) 
n/a

>  <FINAL_SINGLE_POINT_ENERGY>  (1258) 
0

>  <NONCOV_INTER_ENERGY_QM>  (1258) 
0

>  <FF_Energy>  (1258) 
-4.05

>  <QM_Energy>  (1258) 
-10.97

>  <source>  (1258) 
ETAM_MSM

>  <Index>  (1258) 
7885

$$$$
ETAM-pdb4omb-C-LYS-303:MSM-pdb4omb-C-MET-57
     RDKit          3D

 20 18  0  0  0  0  0  0  0  0999 V2000
    1.2433    0.8629    0.0000 C   0  0  0  0  0  0  0  0  0  0  0  0
    2.0435    0.2816    0.0535 H   0  0  0  0  0  0  0  0  0  0  0  0
    1.2054    1.4887    0.7670 H   0  0  0  0  0  0  0  0  0  0  0  0
    1.3075    1.4484   -0.9172 H   0  0  0  0  0  0  0  0  0  0  0  0
    0.0000    0.0000    0.0000 C   0  0  0  0  0  0  0  0  0  0  0  0
    0.0081   -0.5864   -0.8166 H   0  0  0  0  0  0  0  0  0  0  0  0
    0.0084   -0.5865    0.8162 H   0  0  0  0  0  0  0  0  0  0  0  0
   -1.2433    0.8145   -0.0000 N   0  0  0  0  0  4  0  0  0  0  0  0
   -1.3712    1.2266   -0.9028 H   0  0  0  0  0  0  0  0  0  0  0  0
   -2.0248    0.2287    0.2133 H   0  0  0  0  0  0  0  0  0  0  0  0
   -1.1685    1.5354    0.6889 H   0  0  0  0  0  0  0  0  0  0  0  0
   -3.0055    2.5348    3.6456 C   0  0  0  0  0  0  0  0  0  0  0  0
   -3.3333    1.7361    4.2177 H   0  0  0  0  0  0  0  0  0  0  0  0
   -3.8703    2.9031    3.2101 H   0  0  0  0  0  0  0  0  0  0  0  0
   -2.6119    3.2962    4.3190 H   0  0  0  0  0  0  0  0  0  0  0  0
   -1.8488    1.9552    2.3576 S   0  0  0  0  0  0  0  0  0  0  0  0
   -1.1366    0.4780    3.1815 C   0  0  0  0  0  0  0  0  0  0  0  0
   -0.1791    0.4076    2.9256 H   0  0  0  0  0  0  0  0  0  0  0  0
   -1.2273    0.5930    4.1648 H   0  0  0  0  0  0  0  0  0  0  0  0
   -1.6385   -0.3238    2.8771 H   0  0  0  0  0  0  0  0  0  0  0  0
  1  5  1  0
  5  8  1  0
  1  2  1  0
  1  3  1  0
  1  4  1  0
  5  6  1  0
  5  7  1  0
  8  9  1  0
  8 10  1  0
  8 11  1  0
 12 16  1  0
 16 17  1  0
 12 13  1  0
 12 14  1  0
 12 15  1  0
 17 18  1  0
 17 19  1  0
 17 20  1  0
M  CHG  1   8   1
M  END
>  <PDB_ID>  (1259) 
pdb4omb

>  <RESIDUE_NAME>  (1259) 
LYS   MET

>  <FRAG_NAME>  (1259) 
ETAM   MSM

>  <FRAG_ATOM_NUM>  (1259) 
fragi: 11  fragj: 9

>  <atom.prop.CHAIN_ID>  (1259) 
A A A A A A A A A A A Z Z Z Z Z Z Z Z Z

>  <atom.prop.IS_HEAVY_ATOM>  (1259) 
1 0 0 0 1 0 0 1 0 0 0 1 0 0 0 1 1 0 0 0

>  <DIFUSE_FUNC_ATOM>  (1259) 
n/a

>  <FINAL_SINGLE_POINT_ENERGY>  (1259) 
0

>  <NONCOV_INTER_ENERGY_QM>  (1259) 
0

>  <FF_Energy>  (1259) 
10.48

>  <QM_Energy>  (1259) 
-3.0

>  <source>  (1259) 
ETAM_MSM

>  <Index>  (1259) 
7892

$$$$
ETAM-pdb4osp-B-LYS-164:MSM-pdb4osp-B-MET-167
     RDKit          3D

 20 18  0  0  0  0  0  0  0  0999 V2000
    1.2508    0.8676   -0.0000 C   0  0  0  0  0  0  0  0  0  0  0  0
    1.2743    1.3891    0.8482 H   0  0  0  0  0  0  0  0  0  0  0  0
    1.2085    1.4834   -0.7811 H   0  0  0  0  0  0  0  0  0  0  0  0
    2.1582    0.2679   -0.0709 H   0  0  0  0  0  0  0  0  0  0  0  0
    0.0000    0.0000    0.0000 C   0  0  0  0  0  0  0  0  0  0  0  0
    0.0085   -0.5842   -0.8156 H   0  0  0  0  0  0  0  0  0  0  0  0
    0.0086   -0.5839    0.8162 H   0  0  0  0  0  0  0  0  0  0  0  0
   -1.2508    0.8179    0.0000 N   0  0  0  0  0  4  0  0  0  0  0  0
   -1.9991    0.2737   -0.3755 H   0  0  0  0  0  0  0  0  0  0  0  0
   -1.4662    1.0876    0.9368 H   0  0  0  0  0  0  0  0  0  0  0  0
   -1.1107    1.6317   -0.5615 H   0  0  0  0  0  0  0  0  0  0  0  0
    0.7014    5.0642    1.8017 C   0  0  0  0  0  0  0  0  0  0  0  0
    1.1229    4.4671    2.5077 H   0  0  0  0  0  0  0  0  0  0  0  0
    0.5414    5.9684    2.2372 H   0  0  0  0  0  0  0  0  0  0  0  0
    1.4109    5.1911    0.9839 H   0  0  0  0  0  0  0  0  0  0  0  0
   -0.8389    4.3591    1.2002 S   0  0  0  0  0  0  0  0  0  0  0  0
   -1.5611    5.8033    0.4464 C   0  0  0  0  0  0  0  0  0  0  0  0
   -1.1595    6.6316    0.8433 H   0  0  0  0  0  0  0  0  0  0  0  0
   -1.3866    5.7961   -0.5409 H   0  0  0  0  0  0  0  0  0  0  0  0
   -2.5516    5.8105    0.6045 H   0  0  0  0  0  0  0  0  0  0  0  0
  1  5  1  0
  5  8  1  0
  1  2  1  0
  1  3  1  0
  1  4  1  0
  5  6  1  0
  5  7  1  0
  8  9  1  0
  8 10  1  0
  8 11  1  0
 12 16  1  0
 16 17  1  0
 12 13  1  0
 12 14  1  0
 12 15  1  0
 17 18  1  0
 17 19  1  0
 17 20  1  0
M  CHG  1   8   1
M  END
>  <PDB_ID>  (1260) 
pdb4osp

>  <RESIDUE_NAME>  (1260) 
LYS   MET

>  <FRAG_NAME>  (1260) 
ETAM   MSM

>  <FRAG_ATOM_NUM>  (1260) 
fragi: 11  fragj: 9

>  <atom.prop.CHAIN_ID>  (1260) 
A A A A A A A A A A A Z Z Z Z Z Z Z Z Z

>  <atom.prop.IS_HEAVY_ATOM>  (1260) 
1 0 0 0 1 0 0 1 0 0 0 1 0 0 0 1 1 0 0 0

>  <DIFUSE_FUNC_ATOM>  (1260) 
n/a

>  <FINAL_SINGLE_POINT_ENERGY>  (1260) 
0

>  <NONCOV_INTER_ENERGY_QM>  (1260) 
0

>  <FF_Energy>  (1260) 
-5.2

>  <QM_Energy>  (1260) 
-11.66

>  <source>  (1260) 
ETAM_MSM

>  <Index>  (1260) 
7910

$$$$
ETAM-pdb3qye-B-LYS-787:MSM-pdb3qye-B-MET-790
     RDKit          3D

 20 18  0  0  0  0  0  0  0  0999 V2000
    1.2348    0.8741    0.0000 C   0  0  0  0  0  0  0  0  0  0  0  0
    1.3181    1.3079    0.8891 H   0  0  0  0  0  0  0  0  0  0  0  0
    1.1425    1.5560   -0.7153 H   0  0  0  0  0  0  0  0  0  0  0  0
    2.1276    0.2781   -0.1897 H   0  0  0  0  0  0  0  0  0  0  0  0
    0.0000    0.0000    0.0000 C   0  0  0  0  0  0  0  0  0  0  0  0
    0.0136   -0.5831   -0.8159 H   0  0  0  0  0  0  0  0  0  0  0  0
    0.0136   -0.5837    0.8166 H   0  0  0  0  0  0  0  0  0  0  0  0
   -1.2348    0.8133    0.0000 N   0  0  0  0  0  4  0  0  0  0  0  0
   -1.1102    1.6140    0.5884 H   0  0  0  0  0  0  0  0  0  0  0  0
   -1.4382    1.1167   -0.9324 H   0  0  0  0  0  0  0  0  0  0  0  0
   -1.9983    0.2654    0.3435 H   0  0  0  0  0  0  0  0  0  0  0  0
   -3.1927   -4.3990    2.4920 C   0  0  0  0  0  0  0  0  0  0  0  0
   -2.2931   -4.8774    2.3784 H   0  0  0  0  0  0  0  0  0  0  0  0
   -3.8617   -4.9306    1.9264 H   0  0  0  0  0  0  0  0  0  0  0  0
   -3.4910   -4.4659    3.5383 H   0  0  0  0  0  0  0  0  0  0  0  0
   -3.0884   -2.6987    1.9260 S   0  0  0  0  0  0  0  0  0  0  0  0
   -1.3366   -2.5420    1.5900 C   0  0  0  0  0  0  0  0  0  0  0  0
   -0.8399   -2.4110    2.4495 H   0  0  0  0  0  0  0  0  0  0  0  0
   -1.0058   -3.3724    1.1388 H   0  0  0  0  0  0  0  0  0  0  0  0
   -1.1782   -1.7537    0.9926 H   0  0  0  0  0  0  0  0  0  0  0  0
  1  5  1  0
  5  8  1  0
  1  2  1  0
  1  3  1  0
  1  4  1  0
  5  6  1  0
  5  7  1  0
  8  9  1  0
  8 10  1  0
  8 11  1  0
 12 16  1  0
 16 17  1  0
 12 13  1  0
 12 14  1  0
 12 15  1  0
 17 18  1  0
 17 19  1  0
 17 20  1  0
M  CHG  1   8   1
M  END
>  <PDB_ID>  (1261) 
pdb3qye

>  <RESIDUE_NAME>  (1261) 
LYS   MET

>  <FRAG_NAME>  (1261) 
ETAM   MSM

>  <FRAG_ATOM_NUM>  (1261) 
fragi: 11  fragj: 9

>  <atom.prop.CHAIN_ID>  (1261) 
A A A A A A A A A A A Z Z Z Z Z Z Z Z Z

>  <atom.prop.IS_HEAVY_ATOM>  (1261) 
1 0 0 0 1 0 0 1 0 0 0 1 0 0 0 1 1 0 0 0

>  <DIFUSE_FUNC_ATOM>  (1261) 
n/a

>  <FINAL_SINGLE_POINT_ENERGY>  (1261) 
0

>  <NONCOV_INTER_ENERGY_QM>  (1261) 
0

>  <FF_Energy>  (1261) 
9.35

>  <QM_Energy>  (1261) 
0.81

>  <source>  (1261) 
ETAM_MSM

>  <Index>  (1261) 
7911

$$$$
ETAM-pdb3qyj-B-LYS-79:MSM-pdb3qyj-B-MET-82
     RDKit          3D

 20 18  0  0  0  0  0  0  0  0999 V2000
    1.3065    0.6995    0.0000 C   0  0  0  0  0  0  0  0  0  0  0  0
    2.0381    0.0446    0.2224 H   0  0  0  0  0  0  0  0  0  0  0  0
    1.3008    1.4209    0.7013 H   0  0  0  0  0  0  0  0  0  0  0  0
    1.5486    1.1616   -0.9571 H   0  0  0  0  0  0  0  0  0  0  0  0
    0.0000    0.0000    0.0000 C   0  0  0  0  0  0  0  0  0  0  0  0
   -0.0623   -0.6331   -0.8163 H   0  0  0  0  0  0  0  0  0  0  0  0
   -0.0627   -0.6336    0.8163 H   0  0  0  0  0  0  0  0  0  0  0  0
   -1.3065    0.8331    0.0000 N   0  0  0  0  0  4  0  0  0  0  0  0
   -1.2317    1.5113    0.7174 H   0  0  0  0  0  0  0  0  0  0  0  0
   -1.3908    1.2609   -0.8890 H   0  0  0  0  0  0  0  0  0  0  0  0
   -2.0587    0.2132    0.1707 H   0  0  0  0  0  0  0  0  0  0  0  0
    0.3213    3.7726    4.1533 C   0  0  0  0  0  0  0  0  0  0  0  0
    0.0524    3.9983    5.1414 H   0  0  0  0  0  0  0  0  0  0  0  0
   -0.1176    4.5599    3.6183 H   0  0  0  0  0  0  0  0  0  0  0  0
    1.4007    3.9080    4.0840 H   0  0  0  0  0  0  0  0  0  0  0  0
   -0.4002    2.1706    3.6415 S   0  0  0  0  0  0  0  0  0  0  0  0
    0.3320    1.2236    4.9983 C   0  0  0  0  0  0  0  0  0  0  0  0
    1.0672    0.6529    4.6388 H   0  0  0  0  0  0  0  0  0  0  0  0
    0.6961    1.8566    5.6789 H   0  0  0  0  0  0  0  0  0  0  0  0
   -0.3710    0.6491    5.4123 H   0  0  0  0  0  0  0  0  0  0  0  0
  1  5  1  0
  5  8  1  0
  1  2  1  0
  1  3  1  0
  1  4  1  0
  5  6  1  0
  5  7  1  0
  8  9  1  0
  8 10  1  0
  8 11  1  0
 12 16  1  0
 16 17  1  0
 12 13  1  0
 12 14  1  0
 12 15  1  0
 17 18  1  0
 17 19  1  0
 17 20  1  0
M  CHG  1   8   1
M  END
>  <PDB_ID>  (1262) 
pdb3qyj

>  <RESIDUE_NAME>  (1262) 
LYS   MET

>  <FRAG_NAME>  (1262) 
ETAM   MSM

>  <FRAG_ATOM_NUM>  (1262) 
fragi: 11  fragj: 9

>  <atom.prop.CHAIN_ID>  (1262) 
A A A A A A A A A A A Z Z Z Z Z Z Z Z Z

>  <atom.prop.IS_HEAVY_ATOM>  (1262) 
1 0 0 0 1 0 0 1 0 0 0 1 0 0 0 1 1 0 0 0

>  <DIFUSE_FUNC_ATOM>  (1262) 
n/a

>  <FINAL_SINGLE_POINT_ENERGY>  (1262) 
0

>  <NONCOV_INTER_ENERGY_QM>  (1262) 
0

>  <FF_Energy>  (1262) 
-5.11

>  <QM_Energy>  (1262) 
-10.77

>  <source>  (1262) 
ETAM_MSM

>  <Index>  (1262) 
7913

$$$$
ETAM-pdb3qxl-B-LYS-263:MSM-pdb3qxl-B-MET-61
     RDKit          3D

 20 18  0  0  0  0  0  0  0  0999 V2000
    1.2508    0.8650    0.0000 C   0  0  0  0  0  0  0  0  0  0  0  0
    1.3545    1.2718   -0.8998 H   0  0  0  0  0  0  0  0  0  0  0  0
    2.0316    0.2917    0.2180 H   0  0  0  0  0  0  0  0  0  0  0  0
    1.1758    1.6603    0.7416 H   0  0  0  0  0  0  0  0  0  0  0  0
    0.0000    0.0000    0.0000 C   0  0  0  0  0  0  0  0  0  0  0  0
    0.0052   -0.5836   -0.8159 H   0  0  0  0  0  0  0  0  0  0  0  0
    0.0051   -0.5835    0.8165 H   0  0  0  0  0  0  0  0  0  0  0  0
   -1.2508    0.8241   -0.0000 N   0  0  0  0  0  4  0  0  0  0  0  0
   -1.3913    1.2046   -0.9123 H   0  0  0  0  0  0  0  0  0  0  0  0
   -2.0242    0.2440    0.2482 H   0  0  0  0  0  0  0  0  0  0  0  0
   -1.1550    1.5630    0.6646 H   0  0  0  0  0  0  0  0  0  0  0  0
   -4.3372    3.0248   -1.1787 C   0  0  0  0  0  0  0  0  0  0  0  0
   -4.0825    2.0961   -1.5566 H   0  0  0  0  0  0  0  0  0  0  0  0
   -4.8509    3.4811   -1.9525 H   0  0  0  0  0  0  0  0  0  0  0  0
   -5.0370    2.8707   -0.3573 H   0  0  0  0  0  0  0  0  0  0  0  0
   -2.8376    3.9762   -0.7606 S   0  0  0  0  0  0  0  0  0  0  0  0
   -3.5213    5.2695    0.2904 C   0  0  0  0  0  0  0  0  0  0  0  0
   -3.2525    5.1021    1.2386 H   0  0  0  0  0  0  0  0  0  0  0  0
   -3.1706    6.1570   -0.0068 H   0  0  0  0  0  0  0  0  0  0  0  0
   -4.5182    5.2614    0.2182 H   0  0  0  0  0  0  0  0  0  0  0  0
  1  5  1  0
  5  8  1  0
  1  2  1  0
  1  3  1  0
  1  4  1  0
  5  6  1  0
  5  7  1  0
  8  9  1  0
  8 10  1  0
  8 11  1  0
 12 16  1  0
 16 17  1  0
 12 13  1  0
 12 14  1  0
 12 15  1  0
 17 18  1  0
 17 19  1  0
 17 20  1  0
M  CHG  1   8   1
M  END
>  <PDB_ID>  (1263) 
pdb3qxl

>  <RESIDUE_NAME>  (1263) 
LYS   MET

>  <FRAG_NAME>  (1263) 
ETAM   MSM

>  <FRAG_ATOM_NUM>  (1263) 
fragi: 11  fragj: 9

>  <atom.prop.CHAIN_ID>  (1263) 
A A A A A A A A A A A Z Z Z Z Z Z Z Z Z

>  <atom.prop.IS_HEAVY_ATOM>  (1263) 
1 0 0 0 1 0 0 1 0 0 0 1 0 0 0 1 1 0 0 0

>  <DIFUSE_FUNC_ATOM>  (1263) 
n/a

>  <FINAL_SINGLE_POINT_ENERGY>  (1263) 
0

>  <NONCOV_INTER_ENERGY_QM>  (1263) 
0

>  <FF_Energy>  (1263) 
-4.29

>  <QM_Energy>  (1263) 
-10.56

>  <source>  (1263) 
ETAM_MSM

>  <Index>  (1263) 
7932

$$$$
ETAM-pdb3r2i-A-LYS-166:MSM-pdb3r2i-A-MET-215
     RDKit          3D

 20 18  0  0  0  0  0  0  0  0999 V2000
    1.2636    0.8172   -0.0000 C   0  0  0  0  0  0  0  0  0  0  0  0
    1.2831    1.3720   -0.8490 H   0  0  0  0  0  0  0  0  0  0  0  0
    2.0532    0.1814   -0.0386 H   0  0  0  0  0  0  0  0  0  0  0  0
    1.3861    1.4807    0.8561 H   0  0  0  0  0  0  0  0  0  0  0  0
    0.0000    0.0000    0.0000 C   0  0  0  0  0  0  0  0  0  0  0  0
   -0.0186   -0.5941   -0.8162 H   0  0  0  0  0  0  0  0  0  0  0  0
   -0.0192   -0.5947    0.8163 H   0  0  0  0  0  0  0  0  0  0  0  0
   -1.2636    0.8365    0.0000 N   0  0  0  0  0  4  0  0  0  0  0  0
   -2.0359    0.2465   -0.2148 H   0  0  0  0  0  0  0  0  0  0  0  0
   -1.3780    1.2400    0.9031 H   0  0  0  0  0  0  0  0  0  0  0  0
   -1.1730    1.5496   -0.6880 H   0  0  0  0  0  0  0  0  0  0  0  0
   -0.6863    4.9726   -0.5992 C   0  0  0  0  0  0  0  0  0  0  0  0
   -0.2213    4.7091    0.2746 H   0  0  0  0  0  0  0  0  0  0  0  0
   -0.8539    5.9810   -0.5305 H   0  0  0  0  0  0  0  0  0  0  0  0
   -0.0029    4.7874   -1.4279 H   0  0  0  0  0  0  0  0  0  0  0  0
   -2.2179    4.0827   -0.8012 S   0  0  0  0  0  0  0  0  0  0  0  0
   -3.0451    4.6625    0.6982 C   0  0  0  0  0  0  0  0  0  0  0  0
   -3.6103    5.4543    0.4751 H   0  0  0  0  0  0  0  0  0  0  0  0
   -3.6180    3.9299    1.0604 H   0  0  0  0  0  0  0  0  0  0  0  0
   -2.3558    4.9187    1.3739 H   0  0  0  0  0  0  0  0  0  0  0  0
  1  5  1  0
  5  8  1  0
  1  2  1  0
  1  3  1  0
  1  4  1  0
  5  6  1  0
  5  7  1  0
  8  9  1  0
  8 10  1  0
  8 11  1  0
 12 16  1  0
 16 17  1  0
 12 13  1  0
 12 14  1  0
 12 15  1  0
 17 18  1  0
 17 19  1  0
 17 20  1  0
M  CHG  1   8   1
M  END
>  <PDB_ID>  (1264) 
pdb3r2i

>  <RESIDUE_NAME>  (1264) 
LYS   MET

>  <FRAG_NAME>  (1264) 
ETAM   MSM

>  <FRAG_ATOM_NUM>  (1264) 
fragi: 11  fragj: 9

>  <atom.prop.CHAIN_ID>  (1264) 
A A A A A A A A A A A Z Z Z Z Z Z Z Z Z

>  <atom.prop.IS_HEAVY_ATOM>  (1264) 
1 0 0 0 1 0 0 1 0 0 0 1 0 0 0 1 1 0 0 0

>  <DIFUSE_FUNC_ATOM>  (1264) 
n/a

>  <FINAL_SINGLE_POINT_ENERGY>  (1264) 
0

>  <NONCOV_INTER_ENERGY_QM>  (1264) 
0

>  <FF_Energy>  (1264) 
-4.76

>  <QM_Energy>  (1264) 
-12.5

>  <source>  (1264) 
ETAM_MSM

>  <Index>  (1264) 
7935

$$$$
ETAM-pdb4p16-A-LYS-141:MSM-pdb4p16-A-MET-138
     RDKit          3D

 20 18  0  0  0  0  0  0  0  0999 V2000
    1.2486    0.8521    0.0000 C   0  0  0  0  0  0  0  0  0  0  0  0
    1.1771    1.5349    0.7321 H   0  0  0  0  0  0  0  0  0  0  0  0
    1.3196    1.3267   -0.8818 H   0  0  0  0  0  0  0  0  0  0  0  0
    2.1683    0.2878    0.1545 H   0  0  0  0  0  0  0  0  0  0  0  0
    0.0000    0.0000    0.0000 C   0  0  0  0  0  0  0  0  0  0  0  0
   -0.0010   -0.5864   -0.8157 H   0  0  0  0  0  0  0  0  0  0  0  0
   -0.0010   -0.5870    0.8161 H   0  0  0  0  0  0  0  0  0  0  0  0
   -1.2486    0.8270   -0.0000 N   0  0  0  0  0  4  0  0  0  0  0  0
   -1.2773    1.3755   -0.8338 H   0  0  0  0  0  0  0  0  0  0  0  0
   -2.0416    0.2219    0.0352 H   0  0  0  0  0  0  0  0  0  0  0  0
   -1.2442    1.4259    0.7982 H   0  0  0  0  0  0  0  0  0  0  0  0
   -0.2269    4.5632   -3.2003 C   0  0  0  0  0  0  0  0  0  0  0  0
   -0.4784    5.2994   -2.4963 H   0  0  0  0  0  0  0  0  0  0  0  0
   -0.7320    4.8975   -4.0578 H   0  0  0  0  0  0  0  0  0  0  0  0
    0.8431    4.6411   -3.3930 H   0  0  0  0  0  0  0  0  0  0  0  0
   -0.8971    2.9435   -2.6748 S   0  0  0  0  0  0  0  0  0  0  0  0
   -0.7287    2.0050   -4.2228 C   0  0  0  0  0  0  0  0  0  0  0  0
    0.2201    1.7151   -4.3225 H   0  0  0  0  0  0  0  0  0  0  0  0
   -1.3275    1.2090   -4.1836 H   0  0  0  0  0  0  0  0  0  0  0  0
   -0.9889    2.5916   -4.9857 H   0  0  0  0  0  0  0  0  0  0  0  0
  1  5  1  0
  5  8  1  0
  1  2  1  0
  1  3  1  0
  1  4  1  0
  5  6  1  0
  5  7  1  0
  8  9  1  0
  8 10  1  0
  8 11  1  0
 12 16  1  0
 16 17  1  0
 12 13  1  0
 12 14  1  0
 12 15  1  0
 17 18  1  0
 17 19  1  0
 17 20  1  0
M  CHG  1   8   1
M  END
>  <PDB_ID>  (1265) 
pdb4p16

>  <RESIDUE_NAME>  (1265) 
LYS   MET

>  <FRAG_NAME>  (1265) 
ETAM   MSM

>  <FRAG_ATOM_NUM>  (1265) 
fragi: 11  fragj: 9

>  <atom.prop.CHAIN_ID>  (1265) 
A A A A A A A A A A A Z Z Z Z Z Z Z Z Z

>  <atom.prop.IS_HEAVY_ATOM>  (1265) 
1 0 0 0 1 0 0 1 0 0 0 1 0 0 0 1 1 0 0 0

>  <DIFUSE_FUNC_ATOM>  (1265) 
n/a

>  <FINAL_SINGLE_POINT_ENERGY>  (1265) 
0

>  <NONCOV_INTER_ENERGY_QM>  (1265) 
0

>  <FF_Energy>  (1265) 
-6.22

>  <QM_Energy>  (1265) 
-14.0

>  <source>  (1265) 
ETAM_MSM

>  <Index>  (1265) 
7938

$$$$
ETAM-pdb3r2t-A-LYS-166:MSM-pdb3r2t-A-MET-215
     RDKit          3D

 20 18  0  0  0  0  0  0  0  0999 V2000
    1.2228    0.8985    0.0000 C   0  0  0  0  0  0  0  0  0  0  0  0
    1.1425    1.5418   -0.7551 H   0  0  0  0  0  0  0  0  0  0  0  0
    2.0311    0.3305   -0.1151 H   0  0  0  0  0  0  0  0  0  0  0  0
    1.3034    1.4533    0.9348 H   0  0  0  0  0  0  0  0  0  0  0  0
    0.0000    0.0000    0.0000 C   0  0  0  0  0  0  0  0  0  0  0  0
    0.0092   -0.5638   -0.8157 H   0  0  0  0  0  0  0  0  0  0  0  0
    0.0088   -0.5644    0.8162 H   0  0  0  0  0  0  0  0  0  0  0  0
   -1.2228    0.8480    0.0000 N   0  0  0  0  0  4  0  0  0  0  0  0
   -1.8434    0.5348   -0.7184 H   0  0  0  0  0  0  0  0  0  0  0  0
   -1.6763    0.7764    0.8884 H   0  0  0  0  0  0  0  0  0  0  0  0
   -0.9671    1.7994   -0.1695 H   0  0  0  0  0  0  0  0  0  0  0  0
   -0.3367    5.1732   -0.1951 C   0  0  0  0  0  0  0  0  0  0  0  0
    0.0939    4.9101    0.6841 H   0  0  0  0  0  0  0  0  0  0  0  0
   -0.5237    6.1689   -0.1521 H   0  0  0  0  0  0  0  0  0  0  0  0
    0.3674    4.9801   -1.0044 H   0  0  0  0  0  0  0  0  0  0  0  0
   -1.8479    4.2488   -0.4711 S   0  0  0  0  0  0  0  0  0  0  0  0
   -2.7284    4.5976    1.0796 C   0  0  0  0  0  0  0  0  0  0  0  0
   -3.5456    4.0284    1.1215 H   0  0  0  0  0  0  0  0  0  0  0  0
   -2.1271    4.3893    1.8465 H   0  0  0  0  0  0  0  0  0  0  0  0
   -2.9818    5.5613    1.0968 H   0  0  0  0  0  0  0  0  0  0  0  0
  1  5  1  0
  5  8  1  0
  1  2  1  0
  1  3  1  0
  1  4  1  0
  5  6  1  0
  5  7  1  0
  8  9  1  0
  8 10  1  0
  8 11  1  0
 12 16  1  0
 16 17  1  0
 12 13  1  0
 12 14  1  0
 12 15  1  0
 17 18  1  0
 17 19  1  0
 17 20  1  0
M  CHG  1   8   1
M  END
>  <PDB_ID>  (1266) 
pdb3r2t

>  <RESIDUE_NAME>  (1266) 
LYS   MET

>  <FRAG_NAME>  (1266) 
ETAM   MSM

>  <FRAG_ATOM_NUM>  (1266) 
fragi: 11  fragj: 9

>  <atom.prop.CHAIN_ID>  (1266) 
A A A A A A A A A A A Z Z Z Z Z Z Z Z Z

>  <atom.prop.IS_HEAVY_ATOM>  (1266) 
1 0 0 0 1 0 0 1 0 0 0 1 0 0 0 1 1 0 0 0

>  <DIFUSE_FUNC_ATOM>  (1266) 
n/a

>  <FINAL_SINGLE_POINT_ENERGY>  (1266) 
0

>  <NONCOV_INTER_ENERGY_QM>  (1266) 
0

>  <FF_Energy>  (1266) 
-5.01

>  <QM_Energy>  (1266) 
-14.32

>  <source>  (1266) 
ETAM_MSM

>  <Index>  (1266) 
7940

$$$$
ETAM-pdb3r2t-B-LYS-166:MSM-pdb3r2t-B-MET-215
     RDKit          3D

 20 18  0  0  0  0  0  0  0  0999 V2000
    1.2585    0.8639   -0.0000 C   0  0  0  0  0  0  0  0  0  0  0  0
    1.2239    1.4642   -0.8016 H   0  0  0  0  0  0  0  0  0  0  0  0
    2.0514    0.2574   -0.0764 H   0  0  0  0  0  0  0  0  0  0  0  0
    1.3553    1.4717    0.8996 H   0  0  0  0  0  0  0  0  0  0  0  0
    0.0000    0.0000    0.0000 C   0  0  0  0  0  0  0  0  0  0  0  0
    0.0005   -0.5794   -0.8162 H   0  0  0  0  0  0  0  0  0  0  0  0
   -0.0007   -0.5795    0.8169 H   0  0  0  0  0  0  0  0  0  0  0  0
   -1.2585    0.8366    0.0000 N   0  0  0  0  0  4  0  0  0  0  0  0
   -2.0132    0.2791    0.3343 H   0  0  0  0  0  0  0  0  0  0  0  0
   -1.1208    1.6223    0.5966 H   0  0  0  0  0  0  0  0  0  0  0  0
   -1.4412    1.1400   -0.9312 H   0  0  0  0  0  0  0  0  0  0  0  0
   -0.3858    5.0504   -0.4496 C   0  0  0  0  0  0  0  0  0  0  0  0
    0.1234    4.8705    0.4468 H   0  0  0  0  0  0  0  0  0  0  0  0
   -0.6029    6.0719   -0.3865 H   0  0  0  0  0  0  0  0  0  0  0  0
    0.3265    4.9150   -1.2635 H   0  0  0  0  0  0  0  0  0  0  0  0
   -1.8835    4.0858   -0.5364 S   0  0  0  0  0  0  0  0  0  0  0  0
   -2.6617    4.4773    1.0330 C   0  0  0  0  0  0  0  0  0  0  0  0
   -2.7312    3.6472    1.5873 H   0  0  0  0  0  0  0  0  0  0  0  0
   -2.1113    5.1574    1.5185 H   0  0  0  0  0  0  0  0  0  0  0  0
   -3.5776    4.8460    0.8693 H   0  0  0  0  0  0  0  0  0  0  0  0
  1  5  1  0
  5  8  1  0
  1  2  1  0
  1  3  1  0
  1  4  1  0
  5  6  1  0
  5  7  1  0
  8  9  1  0
  8 10  1  0
  8 11  1  0
 12 16  1  0
 16 17  1  0
 12 13  1  0
 12 14  1  0
 12 15  1  0
 17 18  1  0
 17 19  1  0
 17 20  1  0
M  CHG  1   8   1
M  END
>  <PDB_ID>  (1267) 
pdb3r2t

>  <RESIDUE_NAME>  (1267) 
LYS   MET

>  <FRAG_NAME>  (1267) 
ETAM   MSM

>  <FRAG_ATOM_NUM>  (1267) 
fragi: 11  fragj: 9

>  <atom.prop.CHAIN_ID>  (1267) 
A A A A A A A A A A A Z Z Z Z Z Z Z Z Z

>  <atom.prop.IS_HEAVY_ATOM>  (1267) 
1 0 0 0 1 0 0 1 0 0 0 1 0 0 0 1 1 0 0 0

>  <DIFUSE_FUNC_ATOM>  (1267) 
n/a

>  <FINAL_SINGLE_POINT_ENERGY>  (1267) 
0

>  <NONCOV_INTER_ENERGY_QM>  (1267) 
0

>  <FF_Energy>  (1267) 
-5.01

>  <QM_Energy>  (1267) 
-12.53

>  <source>  (1267) 
ETAM_MSM

>  <Index>  (1267) 
7944

$$$$
ETAM-pdb4p66-A-LYS-38:MSM-pdb4p66-A-MET-92
     RDKit          3D

 20 18  0  0  0  0  0  0  0  0999 V2000
    1.2541    0.8382    0.0000 C   0  0  0  0  0  0  0  0  0  0  0  0
    1.2221    1.4636    0.7821 H   0  0  0  0  0  0  0  0  0  0  0  0
    1.2827    1.3718   -0.8474 H   0  0  0  0  0  0  0  0  0  0  0  0
    2.1614    0.2379    0.0681 H   0  0  0  0  0  0  0  0  0  0  0  0
    0.0000    0.0000    0.0000 C   0  0  0  0  0  0  0  0  0  0  0  0
   -0.0043   -0.5932   -0.8163 H   0  0  0  0  0  0  0  0  0  0  0  0
   -0.0040   -0.5930    0.8158 H   0  0  0  0  0  0  0  0  0  0  0  0
   -1.2541    0.8204    0.0000 N   0  0  0  0  0  4  0  0  0  0  0  0
   -1.5127    1.0213    0.9421 H   0  0  0  0  0  0  0  0  0  0  0  0
   -1.0877    1.6712   -0.4943 H   0  0  0  0  0  0  0  0  0  0  0  0
   -1.9811    0.3054   -0.4488 H   0  0  0  0  0  0  0  0  0  0  0  0
    1.7526    4.4802    0.4326 C   0  0  0  0  0  0  0  0  0  0  0  0
    2.3594    3.8077   -0.0595 H   0  0  0  0  0  0  0  0  0  0  0  0
    1.6023    4.0639    1.3642 H   0  0  0  0  0  0  0  0  0  0  0  0
    2.2988    5.4156    0.5541 H   0  0  0  0  0  0  0  0  0  0  0  0
    0.1667    4.6540   -0.4419 S   0  0  0  0  0  0  0  0  0  0  0  0
   -0.8329    5.4947    0.8548 C   0  0  0  0  0  0  0  0  0  0  0  0
   -1.6264    4.9306    1.0502 H   0  0  0  0  0  0  0  0  0  0  0  0
   -0.2684    5.5977    1.6650 H   0  0  0  0  0  0  0  0  0  0  0  0
   -1.1117    6.3816    0.5064 H   0  0  0  0  0  0  0  0  0  0  0  0
  1  5  1  0
  5  8  1  0
  1  2  1  0
  1  3  1  0
  1  4  1  0
  5  6  1  0
  5  7  1  0
  8  9  1  0
  8 10  1  0
  8 11  1  0
 12 16  1  0
 16 17  1  0
 12 13  1  0
 12 14  1  0
 12 15  1  0
 17 18  1  0
 17 19  1  0
 17 20  1  0
M  CHG  1   8   1
M  END
>  <PDB_ID>  (1268) 
pdb4p66

>  <RESIDUE_NAME>  (1268) 
LYS   MET

>  <FRAG_NAME>  (1268) 
ETAM   MSM

>  <FRAG_ATOM_NUM>  (1268) 
fragi: 11  fragj: 9

>  <atom.prop.CHAIN_ID>  (1268) 
A A A A A A A A A A A Z Z Z Z Z Z Z Z Z

>  <atom.prop.IS_HEAVY_ATOM>  (1268) 
1 0 0 0 1 0 0 1 0 0 0 1 0 0 0 1 1 0 0 0

>  <DIFUSE_FUNC_ATOM>  (1268) 
n/a

>  <FINAL_SINGLE_POINT_ENERGY>  (1268) 
0

>  <NONCOV_INTER_ENERGY_QM>  (1268) 
0

>  <FF_Energy>  (1268) 
-3.82

>  <QM_Energy>  (1268) 
-9.74

>  <source>  (1268) 
ETAM_MSM

>  <Index>  (1268) 
7950

$$$$
ETAM-pdb3r4y-A-LYS-25:MSM-pdb3r4y-A-MET-301
     RDKit          3D

 20 18  0  0  0  0  0  0  0  0999 V2000
    1.2845    0.8644    0.0000 C   0  0  0  0  0  0  0  0  0  0  0  0
    1.7005    0.8065    0.8979 H   0  0  0  0  0  0  0  0  0  0  0  0
    1.0325    1.7985   -0.2145 H   0  0  0  0  0  0  0  0  0  0  0  0
    2.0106    0.5246   -0.7384 H   0  0  0  0  0  0  0  0  0  0  0  0
    0.0000    0.0000    0.0000 C   0  0  0  0  0  0  0  0  0  0  0  0
    0.0143   -0.5916   -0.8164 H   0  0  0  0  0  0  0  0  0  0  0  0
    0.0146   -0.5916    0.8166 H   0  0  0  0  0  0  0  0  0  0  0  0
   -1.2845    0.7985    0.0000 N   0  0  0  0  0  4  0  0  0  0  0  0
   -2.0332    0.1986   -0.2662 H   0  0  0  0  0  0  0  0  0  0  0  0
   -1.4390    1.1562    0.9165 H   0  0  0  0  0  0  0  0  0  0  0  0
   -1.1955    1.5472   -0.6505 H   0  0  0  0  0  0  0  0  0  0  0  0
   -0.5336    4.7611    2.8947 C   0  0  0  0  0  0  0  0  0  0  0  0
   -1.2176    4.6874    3.6822 H   0  0  0  0  0  0  0  0  0  0  0  0
   -0.3802    5.7937    2.8210 H   0  0  0  0  0  0  0  0  0  0  0  0
    0.4016    4.3121    3.2293 H   0  0  0  0  0  0  0  0  0  0  0  0
   -1.2795    4.1236    1.3508 S   0  0  0  0  0  0  0  0  0  0  0  0
   -0.2261    4.5540    0.0124 C   0  0  0  0  0  0  0  0  0  0  0  0
   -0.6864    4.3869   -0.8675 H   0  0  0  0  0  0  0  0  0  0  0  0
    0.0252    5.5284    0.0604 H   0  0  0  0  0  0  0  0  0  0  0  0
    0.6183    4.0060    0.0374 H   0  0  0  0  0  0  0  0  0  0  0  0
  1  5  1  0
  5  8  1  0
  1  2  1  0
  1  3  1  0
  1  4  1  0
  5  6  1  0
  5  7  1  0
  8  9  1  0
  8 10  1  0
  8 11  1  0
 12 16  1  0
 16 17  1  0
 12 13  1  0
 12 14  1  0
 12 15  1  0
 17 18  1  0
 17 19  1  0
 17 20  1  0
M  CHG  1   8   1
M  END
>  <PDB_ID>  (1269) 
pdb3r4y

>  <RESIDUE_NAME>  (1269) 
LYS   MET

>  <FRAG_NAME>  (1269) 
ETAM   MSM

>  <FRAG_ATOM_NUM>  (1269) 
fragi: 11  fragj: 9

>  <atom.prop.CHAIN_ID>  (1269) 
A A A A A A A A A A A Z Z Z Z Z Z Z Z Z

>  <atom.prop.IS_HEAVY_ATOM>  (1269) 
1 0 0 0 1 0 0 1 0 0 0 1 0 0 0 1 1 0 0 0

>  <DIFUSE_FUNC_ATOM>  (1269) 
n/a

>  <FINAL_SINGLE_POINT_ENERGY>  (1269) 
0

>  <NONCOV_INTER_ENERGY_QM>  (1269) 
0

>  <FF_Energy>  (1269) 
-4.9

>  <QM_Energy>  (1269) 
-11.45

>  <source>  (1269) 
ETAM_MSM

>  <Index>  (1269) 
7951

$$$$
ETAM-pdb3r72-A-LYS-71:MSM-pdb3r72-A-MET-68
     RDKit          3D

 20 18  0  0  0  0  0  0  0  0999 V2000
    1.2670    0.8436   -0.0000 C   0  0  0  0  0  0  0  0  0  0  0  0
    1.3981    1.1759   -0.9013 H   0  0  0  0  0  0  0  0  0  0  0  0
    2.0040    0.2641    0.2423 H   0  0  0  0  0  0  0  0  0  0  0  0
    1.2425    1.6810    0.6973 H   0  0  0  0  0  0  0  0  0  0  0  0
    0.0000    0.0000    0.0000 C   0  0  0  0  0  0  0  0  0  0  0  0
    0.0050   -0.5597   -0.7914 H   0  0  0  0  0  0  0  0  0  0  0  0
    0.0108   -0.5570    0.7876 H   0  0  0  0  0  0  0  0  0  0  0  0
   -1.2670    0.7461   -0.0000 N   0  0  0  0  0  4  0  0  0  0  0  0
   -1.1730    1.2407    0.8942 H   0  0  0  0  0  0  0  0  0  0  0  0
   -1.8671    0.0468    0.1653 H   0  0  0  0  0  0  0  0  0  0  0  0
   -1.3113    1.2499   -0.6626 H   0  0  0  0  0  0  0  0  0  0  0  0
   -3.6827    3.7215   -2.0660 C   0  0  0  0  0  0  0  0  0  0  0  0
   -4.3239    3.5752   -2.7761 H   0  0  0  0  0  0  0  0  0  0  0  0
   -3.5466    4.6726   -1.9354 H   0  0  0  0  0  0  0  0  0  0  0  0
   -4.0731    3.2895   -1.1446 H   0  0  0  0  0  0  0  0  0  0  0  0
   -2.1019    2.9991   -2.5970 S   0  0  0  0  0  0  0  0  0  0  0  0
   -2.7025    1.5388   -3.4470 C   0  0  0  0  0  0  0  0  0  0  0  0
   -3.2199    1.0255   -2.9131 H   0  0  0  0  0  0  0  0  0  0  0  0
   -1.9544    1.0932   -3.8430 H   0  0  0  0  0  0  0  0  0  0  0  0
   -3.2560    1.8890   -4.2271 H   0  0  0  0  0  0  0  0  0  0  0  0
  1  5  1  0
  5  8  1  0
  1  2  1  0
  1  3  1  0
  1  4  1  0
  5  6  1  0
  5  7  1  0
  8  9  1  0
  8 10  1  0
  8 11  1  0
 12 16  1  0
 16 17  1  0
 12 13  1  0
 12 14  1  0
 12 15  1  0
 17 18  1  0
 17 19  1  0
 17 20  1  0
M  CHG  1   8   1
M  END
>  <PDB_ID>  (1270) 
pdb3r72

>  <RESIDUE_NAME>  (1270) 
LYS   MET

>  <FRAG_NAME>  (1270) 
ETAM   MSM

>  <FRAG_ATOM_NUM>  (1270) 
fragi: 11  fragj: 9

>  <atom.prop.CHAIN_ID>  (1270) 
A A A A A A A A A A A Z Z Z Z Z Z Z Z Z

>  <atom.prop.IS_HEAVY_ATOM>  (1270) 
1 0 0 0 1 0 0 1 0 0 0 1 0 0 0 1 1 0 0 0

>  <DIFUSE_FUNC_ATOM>  (1270) 
n/a

>  <FINAL_SINGLE_POINT_ENERGY>  (1270) 
0

>  <NONCOV_INTER_ENERGY_QM>  (1270) 
0

>  <FF_Energy>  (1270) 
-4.29

>  <QM_Energy>  (1270) 
-11.92

>  <source>  (1270) 
ETAM_MSM

>  <Index>  (1270) 
7954

$$$$
ETAM-pdb3r8x-A-LYS-154:MSM-pdb3r8x-A-MET-151
     RDKit          3D

 20 18  0  0  0  0  0  0  0  0999 V2000
    1.2505    0.8447   -0.0000 C   0  0  0  0  0  0  0  0  0  0  0  0
    1.2653    1.3950    0.8304 H   0  0  0  0  0  0  0  0  0  0  0  0
    1.2377    1.4364   -0.8023 H   0  0  0  0  0  0  0  0  0  0  0  0
    2.1484    0.2273   -0.0300 H   0  0  0  0  0  0  0  0  0  0  0  0
    0.0000    0.0000    0.0000 C   0  0  0  0  0  0  0  0  0  0  0  0
   -0.0040   -0.5887   -0.8161 H   0  0  0  0  0  0  0  0  0  0  0  0
   -0.0046   -0.5893    0.8162 H   0  0  0  0  0  0  0  0  0  0  0  0
   -1.2505    0.8275    0.0000 N   0  0  0  0  0  4  0  0  0  0  0  0
   -1.7496    0.6647   -0.8489 H   0  0  0  0  0  0  0  0  0  0  0  0
   -1.8152    0.5654    0.7799 H   0  0  0  0  0  0  0  0  0  0  0  0
   -1.0031    1.7920    0.0683 H   0  0  0  0  0  0  0  0  0  0  0  0
   -0.2903   -1.6299   -4.7248 C   0  0  0  0  0  0  0  0  0  0  0  0
    0.2920   -1.0594   -5.3365 H   0  0  0  0  0  0  0  0  0  0  0  0
   -0.9044   -2.1703   -5.3331 H   0  0  0  0  0  0  0  0  0  0  0  0
    0.3594   -2.3272   -4.1958 H   0  0  0  0  0  0  0  0  0  0  0  0
   -1.2471   -0.5955   -3.5892 S   0  0  0  0  0  0  0  0  0  0  0  0
   -2.5394   -1.7069   -3.0365 C   0  0  0  0  0  0  0  0  0  0  0  0
   -2.5920   -1.6901   -2.0367 H   0  0  0  0  0  0  0  0  0  0  0  0
   -3.4178   -1.4171   -3.4198 H   0  0  0  0  0  0  0  0  0  0  0  0
   -2.3351   -2.6376   -3.3427 H   0  0  0  0  0  0  0  0  0  0  0  0
  1  5  1  0
  5  8  1  0
  1  2  1  0
  1  3  1  0
  1  4  1  0
  5  6  1  0
  5  7  1  0
  8  9  1  0
  8 10  1  0
  8 11  1  0
 12 16  1  0
 16 17  1  0
 12 13  1  0
 12 14  1  0
 12 15  1  0
 17 18  1  0
 17 19  1  0
 17 20  1  0
M  CHG  1   8   1
M  END
>  <PDB_ID>  (1271) 
pdb3r8x

>  <RESIDUE_NAME>  (1271) 
LYS   MET

>  <FRAG_NAME>  (1271) 
ETAM   MSM

>  <FRAG_ATOM_NUM>  (1271) 
fragi: 11  fragj: 9

>  <atom.prop.CHAIN_ID>  (1271) 
A A A A A A A A A A A Z Z Z Z Z Z Z Z Z

>  <atom.prop.IS_HEAVY_ATOM>  (1271) 
1 0 0 0 1 0 0 1 0 0 0 1 0 0 0 1 1 0 0 0

>  <DIFUSE_FUNC_ATOM>  (1271) 
n/a

>  <FINAL_SINGLE_POINT_ENERGY>  (1271) 
0

>  <NONCOV_INTER_ENERGY_QM>  (1271) 
0

>  <FF_Energy>  (1271) 
-4.47

>  <QM_Energy>  (1271) 
-9.88

>  <source>  (1271) 
ETAM_MSM

>  <Index>  (1271) 
7959

$$$$
ETAM-pdb3rab-A-LYS-72:MSM-pdb3rab-A-MET-22
     RDKit          3D

 20 18  0  0  0  0  0  0  0  0999 V2000
    1.2458    0.8688   -0.0000 C   0  0  0  0  0  0  0  0  0  0  0  0
    1.2450    1.4227    0.8218 H   0  0  0  0  0  0  0  0  0  0  0  0
    1.2338    1.4383   -0.8107 H   0  0  0  0  0  0  0  0  0  0  0  0
    2.1423    0.2490   -0.0115 H   0  0  0  0  0  0  0  0  0  0  0  0
    0.0000    0.0000    0.0000 C   0  0  0  0  0  0  0  0  0  0  0  0
    0.0130   -0.5870   -0.8161 H   0  0  0  0  0  0  0  0  0  0  0  0
    0.0123   -0.5866    0.8163 H   0  0  0  0  0  0  0  0  0  0  0  0
   -1.2458    0.8093   -0.0000 N   0  0  0  0  0  4  0  0  0  0  0  0
   -1.9366    0.3567    0.5645 H   0  0  0  0  0  0  0  0  0  0  0  0
   -1.0526    1.7175    0.3718 H   0  0  0  0  0  0  0  0  0  0  0  0
   -1.5853    0.8977   -0.9360 H   0  0  0  0  0  0  0  0  0  0  0  0
    2.0188    0.9477   -3.7407 C   0  0  0  0  0  0  0  0  0  0  0  0
    2.1603    0.2420   -4.4854 H   0  0  0  0  0  0  0  0  0  0  0  0
    2.4105    0.4975   -2.8932 H   0  0  0  0  0  0  0  0  0  0  0  0
    2.6406    1.8109   -3.9777 H   0  0  0  0  0  0  0  0  0  0  0  0
    0.2704    1.3093   -3.5245 S   0  0  0  0  0  0  0  0  0  0  0  0
   -0.3645    0.7947   -5.1377 C   0  0  0  0  0  0  0  0  0  0  0  0
   -0.0672    1.4488   -5.8305 H   0  0  0  0  0  0  0  0  0  0  0  0
   -0.0099   -0.1131   -5.3546 H   0  0  0  0  0  0  0  0  0  0  0  0
   -1.3617    0.7682   -5.1039 H   0  0  0  0  0  0  0  0  0  0  0  0
  1  5  1  0
  5  8  1  0
  1  2  1  0
  1  3  1  0
  1  4  1  0
  5  6  1  0
  5  7  1  0
  8  9  1  0
  8 10  1  0
  8 11  1  0
 12 16  1  0
 16 17  1  0
 12 13  1  0
 12 14  1  0
 12 15  1  0
 17 18  1  0
 17 19  1  0
 17 20  1  0
M  CHG  1   8   1
M  END
>  <PDB_ID>  (1272) 
pdb3rab

>  <RESIDUE_NAME>  (1272) 
LYS   MET

>  <FRAG_NAME>  (1272) 
ETAM   MSM

>  <FRAG_ATOM_NUM>  (1272) 
fragi: 11  fragj: 9

>  <atom.prop.CHAIN_ID>  (1272) 
A A A A A A A A A A A Z Z Z Z Z Z Z Z Z

>  <atom.prop.IS_HEAVY_ATOM>  (1272) 
1 0 0 0 1 0 0 1 0 0 0 1 0 0 0 1 1 0 0 0

>  <DIFUSE_FUNC_ATOM>  (1272) 
n/a

>  <FINAL_SINGLE_POINT_ENERGY>  (1272) 
0

>  <NONCOV_INTER_ENERGY_QM>  (1272) 
0

>  <FF_Energy>  (1272) 
-5.07

>  <QM_Energy>  (1272) 
-11.72

>  <source>  (1272) 
ETAM_MSM

>  <Index>  (1272) 
7965

$$$$
ETAM-pdb3rco-B-LYS-26:MSM-pdb3rco-B-MET-18
     RDKit          3D

 20 18  0  0  0  0  0  0  0  0999 V2000
    1.2313    0.8852    0.0000 C   0  0  0  0  0  0  0  0  0  0  0  0
    1.2167    1.4567    0.8165 H   0  0  0  0  0  0  0  0  0  0  0  0
    1.2153    1.4562   -0.8165 H   0  0  0  0  0  0  0  0  0  0  0  0
    2.1528    0.3030    0.0006 H   0  0  0  0  0  0  0  0  0  0  0  0
    0.0000    0.0000    0.0000 C   0  0  0  0  0  0  0  0  0  0  0  0
    0.0100   -0.5734   -0.8153 H   0  0  0  0  0  0  0  0  0  0  0  0
    0.0102   -0.5735    0.8167 H   0  0  0  0  0  0  0  0  0  0  0  0
   -1.2313    0.8328    0.0000 N   0  0  0  0  0  4  0  0  0  0  0  0
   -2.0353    0.2374    0.0074 H   0  0  0  0  0  0  0  0  0  0  0  0
   -1.2397    1.4152    0.8125 H   0  0  0  0  0  0  0  0  0  0  0  0
   -1.2467    1.4039   -0.8206 H   0  0  0  0  0  0  0  0  0  0  0  0
   -1.7981    1.5854    4.3934 C   0  0  0  0  0  0  0  0  0  0  0  0
   -1.5052    0.8603    5.0355 H   0  0  0  0  0  0  0  0  0  0  0  0
   -2.7406    1.3674    4.0966 H   0  0  0  0  0  0  0  0  0  0  0  0
   -1.7804    2.5532    4.8947 H   0  0  0  0  0  0  0  0  0  0  0  0
   -0.6873    1.6265    2.9534 S   0  0  0  0  0  0  0  0  0  0  0  0
   -1.4976    2.8700    1.9293 C   0  0  0  0  0  0  0  0  0  0  0  0
   -1.3015    3.7781    2.2965 H   0  0  0  0  0  0  0  0  0  0  0  0
   -1.1522    2.8035    0.9938 H   0  0  0  0  0  0  0  0  0  0  0  0
   -2.4843    2.7108    1.9359 H   0  0  0  0  0  0  0  0  0  0  0  0
  1  5  1  0
  5  8  1  0
  1  2  1  0
  1  3  1  0
  1  4  1  0
  5  6  1  0
  5  7  1  0
  8  9  1  0
  8 10  1  0
  8 11  1  0
 12 16  1  0
 16 17  1  0
 12 13  1  0
 12 14  1  0
 12 15  1  0
 17 18  1  0
 17 19  1  0
 17 20  1  0
M  CHG  1   8   1
M  END
>  <PDB_ID>  (1273) 
pdb3rco

>  <RESIDUE_NAME>  (1273) 
LYS   MET

>  <FRAG_NAME>  (1273) 
ETAM   MSM

>  <FRAG_ATOM_NUM>  (1273) 
fragi: 11  fragj: 9

>  <atom.prop.CHAIN_ID>  (1273) 
A A A A A A A A A A A Z Z Z Z Z Z Z Z Z

>  <atom.prop.IS_HEAVY_ATOM>  (1273) 
1 0 0 0 1 0 0 1 0 0 0 1 0 0 0 1 1 0 0 0

>  <DIFUSE_FUNC_ATOM>  (1273) 
n/a

>  <FINAL_SINGLE_POINT_ENERGY>  (1273) 
0

>  <NONCOV_INTER_ENERGY_QM>  (1273) 
0

>  <FF_Energy>  (1273) 
6.69

>  <QM_Energy>  (1273) 
-1.58

>  <source>  (1273) 
ETAM_MSM

>  <Index>  (1273) 
7979

$$$$
ETAM-pdb3rau-A-LYS-244:MSM-pdb3rau-A-MET-9
     RDKit          3D

 20 18  0  0  0  0  0  0  0  0999 V2000
    1.2631    0.8680    0.0000 C   0  0  0  0  0  0  0  0  0  0  0  0
    1.2740    1.4095    0.8257 H   0  0  0  0  0  0  0  0  0  0  0  0
    1.2551    1.4372   -0.8072 H   0  0  0  0  0  0  0  0  0  0  0  0
    2.1565    0.2439   -0.0202 H   0  0  0  0  0  0  0  0  0  0  0  0
    0.0000    0.0000    0.0000 C   0  0  0  0  0  0  0  0  0  0  0  0
    0.0097   -0.5853   -0.8163 H   0  0  0  0  0  0  0  0  0  0  0  0
    0.0094   -0.5853    0.8162 H   0  0  0  0  0  0  0  0  0  0  0  0
   -1.2631    0.8151   -0.0000 N   0  0  0  0  0  4  0  0  0  0  0  0
   -1.3147    1.3333   -0.8500 H   0  0  0  0  0  0  0  0  0  0  0  0
   -2.0450    0.2014    0.0723 H   0  0  0  0  0  0  0  0  0  0  0  0
   -1.2469    1.4384    0.7782 H   0  0  0  0  0  0  0  0  0  0  0  0
   -6.0084    1.3456   -0.3622 C   0  0  0  0  0  0  0  0  0  0  0  0
   -5.9261    0.3396   -0.2829 H   0  0  0  0  0  0  0  0  0  0  0  0
   -6.8625    1.5403   -0.8707 H   0  0  0  0  0  0  0  0  0  0  0  0
   -6.0836    1.7751    0.6368 H   0  0  0  0  0  0  0  0  0  0  0  0
   -4.5923    2.0423   -1.1947 S   0  0  0  0  0  0  0  0  0  0  0  0
   -4.7356    1.2954   -2.8386 C   0  0  0  0  0  0  0  0  0  0  0  0
   -5.5774    1.6154   -3.2698 H   0  0  0  0  0  0  0  0  0  0  0  0
   -3.9484    1.5658   -3.3893 H   0  0  0  0  0  0  0  0  0  0  0  0
   -4.7589    0.3029   -2.7444 H   0  0  0  0  0  0  0  0  0  0  0  0
  1  5  1  0
  5  8  1  0
  1  2  1  0
  1  3  1  0
  1  4  1  0
  5  6  1  0
  5  7  1  0
  8  9  1  0
  8 10  1  0
  8 11  1  0
 12 16  1  0
 16 17  1  0
 12 13  1  0
 12 14  1  0
 12 15  1  0
 17 18  1  0
 17 19  1  0
 17 20  1  0
M  CHG  1   8   1
M  END
>  <PDB_ID>  (1274) 
pdb3rau

>  <RESIDUE_NAME>  (1274) 
LYS   MET

>  <FRAG_NAME>  (1274) 
ETAM   MSM

>  <FRAG_ATOM_NUM>  (1274) 
fragi: 11  fragj: 9

>  <atom.prop.CHAIN_ID>  (1274) 
A A A A A A A A A A A Z Z Z Z Z Z Z Z Z

>  <atom.prop.IS_HEAVY_ATOM>  (1274) 
1 0 0 0 1 0 0 1 0 0 0 1 0 0 0 1 1 0 0 0

>  <DIFUSE_FUNC_ATOM>  (1274) 
n/a

>  <FINAL_SINGLE_POINT_ENERGY>  (1274) 
0

>  <NONCOV_INTER_ENERGY_QM>  (1274) 
0

>  <FF_Energy>  (1274) 
-4.07

>  <QM_Energy>  (1274) 
-10.58

>  <source>  (1274) 
ETAM_MSM

>  <Index>  (1274) 
7980

$$$$
ETAM-pdb4pfz-B-LYS-80:MSM-pdb4pfz-B-MET-235
     RDKit          3D

 20 18  0  0  0  0  0  0  0  0999 V2000
    1.2367    0.8869   -0.0000 C   0  0  0  0  0  0  0  0  0  0  0  0
    1.2058    1.4764    0.8036 H   0  0  0  0  0  0  0  0  0  0  0  0
    1.2309    1.4413   -0.8289 H   0  0  0  0  0  0  0  0  0  0  0  0
    2.1594    0.3072    0.0274 H   0  0  0  0  0  0  0  0  0  0  0  0
    0.0000    0.0000    0.0000 C   0  0  0  0  0  0  0  0  0  0  0  0
    0.0186   -0.5789   -0.8159 H   0  0  0  0  0  0  0  0  0  0  0  0
    0.0181   -0.5790    0.8166 H   0  0  0  0  0  0  0  0  0  0  0  0
   -1.2367    0.8132    0.0000 N   0  0  0  0  0  4  0  0  0  0  0  0
   -1.8818    0.4440    0.6708 H   0  0  0  0  0  0  0  0  0  0  0  0
   -1.0160    1.7599    0.2381 H   0  0  0  0  0  0  0  0  0  0  0  0
   -1.6542    0.7895   -0.9093 H   0  0  0  0  0  0  0  0  0  0  0  0
   -3.0720    2.1953    2.2298 C   0  0  0  0  0  0  0  0  0  0  0  0
   -3.4021    2.4467    3.1534 H   0  0  0  0  0  0  0  0  0  0  0  0
   -2.9630    1.1888    2.2105 H   0  0  0  0  0  0  0  0  0  0  0  0
   -3.8294    2.4794    1.4993 H   0  0  0  0  0  0  0  0  0  0  0  0
   -1.5097    3.0192    1.8580 S   0  0  0  0  0  0  0  0  0  0  0  0
   -1.8601    4.6846    2.3877 C   0  0  0  0  0  0  0  0  0  0  0  0
   -1.3641    5.3371    1.8097 H   0  0  0  0  0  0  0  0  0  0  0  0
   -2.8434    4.8646    2.3158 H   0  0  0  0  0  0  0  0  0  0  0  0
   -1.5733    4.8054    3.3408 H   0  0  0  0  0  0  0  0  0  0  0  0
  1  5  1  0
  5  8  1  0
  1  2  1  0
  1  3  1  0
  1  4  1  0
  5  6  1  0
  5  7  1  0
  8  9  1  0
  8 10  1  0
  8 11  1  0
 12 16  1  0
 16 17  1  0
 12 13  1  0
 12 14  1  0
 12 15  1  0
 17 18  1  0
 17 19  1  0
 17 20  1  0
M  CHG  1   8   1
M  END
>  <PDB_ID>  (1275) 
pdb4pfz

>  <RESIDUE_NAME>  (1275) 
LYS   MET

>  <FRAG_NAME>  (1275) 
ETAM   MSM

>  <FRAG_ATOM_NUM>  (1275) 
fragi: 11  fragj: 9

>  <atom.prop.CHAIN_ID>  (1275) 
A A A A A A A A A A A Z Z Z Z Z Z Z Z Z

>  <atom.prop.IS_HEAVY_ATOM>  (1275) 
1 0 0 0 1 0 0 1 0 0 0 1 0 0 0 1 1 0 0 0

>  <DIFUSE_FUNC_ATOM>  (1275) 
n/a

>  <FINAL_SINGLE_POINT_ENERGY>  (1275) 
0

>  <NONCOV_INTER_ENERGY_QM>  (1275) 
0

>  <FF_Energy>  (1275) 
-0.35

>  <QM_Energy>  (1275) 
-11.15

>  <source>  (1275) 
ETAM_MSM

>  <Index>  (1275) 
7984

$$$$
ETAM-pdb4ph6-A-LYS-7:MSM-pdb4ph6-A-MET-69
     RDKit          3D

 20 18  0  0  0  0  0  0  0  0999 V2000
    1.2609    0.8554    0.0000 C   0  0  0  0  0  0  0  0  0  0  0  0
    1.1735    1.5513    0.6881 H   0  0  0  0  0  0  0  0  0  0  0  0
    1.3907    1.2303   -0.8987 H   0  0  0  0  0  0  0  0  0  0  0  0
    2.1154    0.2248    0.2455 H   0  0  0  0  0  0  0  0  0  0  0  0
    0.0000    0.0000    0.0000 C   0  0  0  0  0  0  0  0  0  0  0  0
    0.0180   -0.5994   -0.8157 H   0  0  0  0  0  0  0  0  0  0  0  0
    0.0174   -0.6000    0.8159 H   0  0  0  0  0  0  0  0  0  0  0  0
   -1.2609    0.7832    0.0000 N   0  0  0  0  0  4  0  0  0  0  0  0
   -2.0404    0.1604   -0.0653 H   0  0  0  0  0  0  0  0  0  0  0  0
   -1.3261    1.3111    0.8479 H   0  0  0  0  0  0  0  0  0  0  0  0
   -1.2660    1.4066   -0.7819 H   0  0  0  0  0  0  0  0  0  0  0  0
   -5.5694    1.9976   -0.7563 C   0  0  0  0  0  0  0  0  0  0  0  0
   -5.9207    1.0552   -0.6321 H   0  0  0  0  0  0  0  0  0  0  0  0
   -5.3545    2.1117   -1.7406 H   0  0  0  0  0  0  0  0  0  0  0  0
   -6.3474    2.7076   -0.4758 H   0  0  0  0  0  0  0  0  0  0  0  0
   -4.1193    2.2773    0.2505 S   0  0  0  0  0  0  0  0  0  0  0  0
   -4.7318    1.7599    1.8653 C   0  0  0  0  0  0  0  0  0  0  0  0
   -5.4700    1.0981    1.7419 H   0  0  0  0  0  0  0  0  0  0  0  0
   -3.9871    1.3398    2.3820 H   0  0  0  0  0  0  0  0  0  0  0  0
   -5.0757    2.5581    2.3591 H   0  0  0  0  0  0  0  0  0  0  0  0
  1  5  1  0
  5  8  1  0
  1  2  1  0
  1  3  1  0
  1  4  1  0
  5  6  1  0
  5  7  1  0
  8  9  1  0
  8 10  1  0
  8 11  1  0
 12 16  1  0
 16 17  1  0
 12 13  1  0
 12 14  1  0
 12 15  1  0
 17 18  1  0
 17 19  1  0
 17 20  1  0
M  CHG  1   8   1
M  END
>  <PDB_ID>  (1276) 
pdb4ph6

>  <RESIDUE_NAME>  (1276) 
LYS   MET

>  <FRAG_NAME>  (1276) 
ETAM   MSM

>  <FRAG_ATOM_NUM>  (1276) 
fragi: 11  fragj: 9

>  <atom.prop.CHAIN_ID>  (1276) 
A A A A A A A A A A A Z Z Z Z Z Z Z Z Z

>  <atom.prop.IS_HEAVY_ATOM>  (1276) 
1 0 0 0 1 0 0 1 0 0 0 1 0 0 0 1 1 0 0 0

>  <DIFUSE_FUNC_ATOM>  (1276) 
n/a

>  <FINAL_SINGLE_POINT_ENERGY>  (1276) 
0

>  <NONCOV_INTER_ENERGY_QM>  (1276) 
0

>  <FF_Energy>  (1276) 
-4.55

>  <QM_Energy>  (1276) 
-12.56

>  <source>  (1276) 
ETAM_MSM

>  <Index>  (1276) 
7987

$$$$
ETAM-pdb4pcg-B-LYS-290:MSM-pdb4pcg-B-MET-25
     RDKit          3D

 20 18  0  0  0  0  0  0  0  0999 V2000
    1.2325    0.8756    0.0000 C   0  0  0  0  0  0  0  0  0  0  0  0
    1.2148    1.4540    0.8163 H   0  0  0  0  0  0  0  0  0  0  0  0
    1.2146    1.4533   -0.8159 H   0  0  0  0  0  0  0  0  0  0  0  0
    2.1568    0.2979    0.0008 H   0  0  0  0  0  0  0  0  0  0  0  0
    0.0000    0.0000    0.0000 C   0  0  0  0  0  0  0  0  0  0  0  0
    0.0084   -0.5777   -0.8156 H   0  0  0  0  0  0  0  0  0  0  0  0
    0.0074   -0.5773    0.8172 H   0  0  0  0  0  0  0  0  0  0  0  0
   -1.2325    0.8295   -0.0000 N   0  0  0  0  0  4  0  0  0  0  0  0
   -1.5528    0.9498    0.9399 H   0  0  0  0  0  0  0  0  0  0  0  0
   -1.0317    1.7231   -0.4015 H   0  0  0  0  0  0  0  0  0  0  0  0
   -1.9410    0.3730   -0.5381 H   0  0  0  0  0  0  0  0  0  0  0  0
    1.3496   -2.3608    2.2740 C   0  0  0  0  0  0  0  0  0  0  0  0
    0.7298   -1.5960    2.6125 H   0  0  0  0  0  0  0  0  0  0  0  0
    2.2800   -2.1066    2.6636 H   0  0  0  0  0  0  0  0  0  0  0  0
    1.0285   -3.2873    2.7498 H   0  0  0  0  0  0  0  0  0  0  0  0
    1.4039   -2.3780    0.4652 S   0  0  0  0  0  0  0  0  0  0  0  0
   -0.2407   -2.9446    0.0344 C   0  0  0  0  0  0  0  0  0  0  0  0
   -0.8403   -2.1559   -0.1098 H   0  0  0  0  0  0  0  0  0  0  0  0
   -0.1988   -3.4875   -0.8059 H   0  0  0  0  0  0  0  0  0  0  0  0
   -0.6064   -3.5084    0.7765 H   0  0  0  0  0  0  0  0  0  0  0  0
  1  5  1  0
  5  8  1  0
  1  2  1  0
  1  3  1  0
  1  4  1  0
  5  6  1  0
  5  7  1  0
  8  9  1  0
  8 10  1  0
  8 11  1  0
 12 16  1  0
 16 17  1  0
 12 13  1  0
 12 14  1  0
 12 15  1  0
 17 18  1  0
 17 19  1  0
 17 20  1  0
M  CHG  1   8   1
M  END
>  <PDB_ID>  (1277) 
pdb4pcg

>  <RESIDUE_NAME>  (1277) 
LYS   MET

>  <FRAG_NAME>  (1277) 
ETAM   MSM

>  <FRAG_ATOM_NUM>  (1277) 
fragi: 11  fragj: 9

>  <atom.prop.CHAIN_ID>  (1277) 
A A A A A A A A A A A Z Z Z Z Z Z Z Z Z

>  <atom.prop.IS_HEAVY_ATOM>  (1277) 
1 0 0 0 1 0 0 1 0 0 0 1 0 0 0 1 1 0 0 0

>  <DIFUSE_FUNC_ATOM>  (1277) 
n/a

>  <FINAL_SINGLE_POINT_ENERGY>  (1277) 
0

>  <NONCOV_INTER_ENERGY_QM>  (1277) 
0

>  <FF_Energy>  (1277) 
26.07

>  <QM_Energy>  (1277) 
3.52

>  <source>  (1277) 
ETAM_MSM

>  <Index>  (1277) 
7991

$$$$
ETAM-pdb3reo-C-GLU-8:MSM-pdb3reo-B-MET-343
     RDKit          3D

 20 18  0  0  0  0  0  0  0  0999 V2000
    1.2400    0.8924    0.0000 C   0  0  0  0  0  0  0  0  0  0  0  0
    1.0686    1.6471   -0.5916 H   0  0  0  0  0  0  0  0  0  0  0  0
    1.4289    1.1473    0.9207 H   0  0  0  0  0  0  0  0  0  0  0  0
    2.1155    0.3676   -0.3824 H   0  0  0  0  0  0  0  0  0  0  0  0
    0.0000    0.0000    0.0000 C   0  0  0  0  0  0  0  0  0  0  0  0
    0.0080   -0.5515   -0.8445 H   0  0  0  0  0  0  0  0  0  0  0  0
    0.0572   -0.6523    0.8714 H   0  0  0  0  0  0  0  0  0  0  0  0
   -1.2400    0.8501   -0.0000 N   0  0  0  0  0  4  0  0  0  0  0  0
   -1.7755    0.6358   -0.8102 H   0  0  0  0  0  0  0  0  0  0  0  0
   -1.7656    0.6499    0.8199 H   0  0  0  0  0  0  0  0  0  0  0  0
   -0.9722    1.8082   -0.0098 H   0  0  0  0  0  0  0  0  0  0  0  0
   -4.5640   -2.4252   -0.1052 C   0  0  0  0  0  0  0  0  0  0  0  0
   -5.4762   -2.0645   -0.4011 H   0  0  0  0  0  0  0  0  0  0  0  0
   -4.3755   -1.9879    0.8026 H   0  0  0  0  0  0  0  0  0  0  0  0
   -4.6696   -3.4978    0.0580 H   0  0  0  0  0  0  0  0  0  0  0  0
   -3.2956   -2.0533   -1.2881 S   0  0  0  0  0  0  0  0  0  0  0  0
   -3.9431   -2.7431   -2.8211 C   0  0  0  0  0  0  0  0  0  0  0  0
   -4.5586   -3.5012   -2.6086 H   0  0  0  0  0  0  0  0  0  0  0  0
   -4.4432   -2.0343   -3.3170 H   0  0  0  0  0  0  0  0  0  0  0  0
   -3.1845   -3.0730   -3.3817 H   0  0  0  0  0  0  0  0  0  0  0  0
  1  5  1  0
  5  8  1  0
  1  2  1  0
  1  3  1  0
  1  4  1  0
  5  6  1  0
  5  7  1  0
  8  9  1  0
  8 10  1  0
  8 11  1  0
 12 16  1  0
 16 17  1  0
 12 13  1  0
 12 14  1  0
 12 15  1  0
 17 18  1  0
 17 19  1  0
 17 20  1  0
M  CHG  1   8   1
M  END
>  <PDB_ID>  (1278) 
pdb3reo

>  <RESIDUE_NAME>  (1278) 
GLU   MET

>  <FRAG_NAME>  (1278) 
ETAM   MSM

>  <FRAG_ATOM_NUM>  (1278) 
fragi: 11  fragj: 9

>  <atom.prop.CHAIN_ID>  (1278) 
A A A A A A A A A A A Z Z Z Z Z Z Z Z Z

>  <atom.prop.IS_HEAVY_ATOM>  (1278) 
1 0 0 0 1 0 0 1 0 0 0 1 0 0 0 1 1 0 0 0

>  <DIFUSE_FUNC_ATOM>  (1278) 
n/a

>  <FINAL_SINGLE_POINT_ENERGY>  (1278) 
0

>  <NONCOV_INTER_ENERGY_QM>  (1278) 
0

>  <FF_Energy>  (1278) 
-4.89

>  <QM_Energy>  (1278) 
-11.5

>  <source>  (1278) 
ETAM_MSM

>  <Index>  (1278) 
7996

$$$$
ETAM-pdb3rde-A-LYS-189:MSM-pdb3rde-A-MET-591
     RDKit          3D

 20 18  0  0  0  0  0  0  0  0999 V2000
    1.2627    0.8295    0.0000 C   0  0  0  0  0  0  0  0  0  0  0  0
    1.3397    1.3343    0.8427 H   0  0  0  0  0  0  0  0  0  0  0  0
    1.2828    1.4208   -0.7878 H   0  0  0  0  0  0  0  0  0  0  0  0
    2.1451    0.1929   -0.0641 H   0  0  0  0  0  0  0  0  0  0  0  0
    0.0000    0.0000    0.0000 C   0  0  0  0  0  0  0  0  0  0  0  0
   -0.0462   -0.5622   -0.8159 H   0  0  0  0  0  0  0  0  0  0  0  0
   -0.0464   -0.5617    0.8162 H   0  0  0  0  0  0  0  0  0  0  0  0
   -1.2627    0.9195    0.0000 N   0  0  0  0  0  4  0  0  0  0  0  0
   -2.0533    0.3344   -0.0970 H   0  0  0  0  0  0  0  0  0  0  0  0
   -1.2743    1.4041    0.8602 H   0  0  0  0  0  0  0  0  0  0  0  0
   -1.1756    1.5398   -0.7643 H   0  0  0  0  0  0  0  0  0  0  0  0
   -3.3512    4.4480   -1.9730 C   0  0  0  0  0  0  0  0  0  0  0  0
   -4.2853    4.7034   -2.2793 H   0  0  0  0  0  0  0  0  0  0  0  0
   -2.7511    5.2472   -2.1573 H   0  0  0  0  0  0  0  0  0  0  0  0
   -3.3987    4.3363   -0.8898 H   0  0  0  0  0  0  0  0  0  0  0  0
   -2.7693    2.9722   -2.7161 S   0  0  0  0  0  0  0  0  0  0  0  0
   -4.0925    1.8284   -2.1757 C   0  0  0  0  0  0  0  0  0  0  0  0
   -4.1960    1.1173   -2.8635 H   0  0  0  0  0  0  0  0  0  0  0  0
   -3.8296    1.4310   -1.3024 H   0  0  0  0  0  0  0  0  0  0  0  0
   -4.9370    2.3448   -2.0806 H   0  0  0  0  0  0  0  0  0  0  0  0
  1  5  1  0
  5  8  1  0
  1  2  1  0
  1  3  1  0
  1  4  1  0
  5  6  1  0
  5  7  1  0
  8  9  1  0
  8 10  1  0
  8 11  1  0
 12 16  1  0
 16 17  1  0
 12 13  1  0
 12 14  1  0
 12 15  1  0
 17 18  1  0
 17 19  1  0
 17 20  1  0
M  CHG  1   8   1
M  END
>  <PDB_ID>  (1279) 
pdb3rde

>  <RESIDUE_NAME>  (1279) 
LYS   MET

>  <FRAG_NAME>  (1279) 
ETAM   MSM

>  <FRAG_ATOM_NUM>  (1279) 
fragi: 11  fragj: 9

>  <atom.prop.CHAIN_ID>  (1279) 
A A A A A A A A A A A Z Z Z Z Z Z Z Z Z

>  <atom.prop.IS_HEAVY_ATOM>  (1279) 
1 0 0 0 1 0 0 1 0 0 0 1 0 0 0 1 1 0 0 0

>  <DIFUSE_FUNC_ATOM>  (1279) 
n/a

>  <FINAL_SINGLE_POINT_ENERGY>  (1279) 
0

>  <NONCOV_INTER_ENERGY_QM>  (1279) 
0

>  <FF_Energy>  (1279) 
-2.92

>  <QM_Energy>  (1279) 
-9.54

>  <source>  (1279) 
ETAM_MSM

>  <Index>  (1279) 
7998

$$$$
ETAM-pdb4ph6-B-LYS-7:MSM-pdb4ph6-B-MET-69
     RDKit          3D

 20 18  0  0  0  0  0  0  0  0999 V2000
    1.2473    0.8739    0.0000 C   0  0  0  0  0  0  0  0  0  0  0  0
    1.1548    1.5544    0.7092 H   0  0  0  0  0  0  0  0  0  0  0  0
    1.3426    1.2864   -0.8915 H   0  0  0  0  0  0  0  0  0  0  0  0
    2.1237    0.2595    0.2063 H   0  0  0  0  0  0  0  0  0  0  0  0
    0.0000    0.0000    0.0000 C   0  0  0  0  0  0  0  0  0  0  0  0
    0.0119   -0.5826   -0.8163 H   0  0  0  0  0  0  0  0  0  0  0  0
    0.0118   -0.5832    0.8168 H   0  0  0  0  0  0  0  0  0  0  0  0
   -1.2473    0.8153   -0.0000 N   0  0  0  0  0  4  0  0  0  0  0  0
   -2.0234    0.2329   -0.2400 H   0  0  0  0  0  0  0  0  0  0  0  0
   -1.3887    1.2038    0.9102 H   0  0  0  0  0  0  0  0  0  0  0  0
   -1.1610    1.5522   -0.6694 H   0  0  0  0  0  0  0  0  0  0  0  0
   -5.6054    2.1336   -1.0302 C   0  0  0  0  0  0  0  0  0  0  0  0
   -5.9668    1.1842   -0.9167 H   0  0  0  0  0  0  0  0  0  0  0  0
   -5.3221    2.2113   -2.0095 H   0  0  0  0  0  0  0  0  0  0  0  0
   -6.4101    2.8430   -0.8366 H   0  0  0  0  0  0  0  0  0  0  0  0
   -4.2129    2.4187    0.0574 S   0  0  0  0  0  0  0  0  0  0  0  0
   -4.9769    2.1170    1.6572 C   0  0  0  0  0  0  0  0  0  0  0  0
   -5.7203    1.4561    1.5515 H   0  0  0  0  0  0  0  0  0  0  0  0
   -4.2932    1.7520    2.2887 H   0  0  0  0  0  0  0  0  0  0  0  0
   -5.3407    2.9751    2.0189 H   0  0  0  0  0  0  0  0  0  0  0  0
  1  5  1  0
  5  8  1  0
  1  2  1  0
  1  3  1  0
  1  4  1  0
  5  6  1  0
  5  7  1  0
  8  9  1  0
  8 10  1  0
  8 11  1  0
 12 16  1  0
 16 17  1  0
 12 13  1  0
 12 14  1  0
 12 15  1  0
 17 18  1  0
 17 19  1  0
 17 20  1  0
M  CHG  1   8   1
M  END
>  <PDB_ID>  (1280) 
pdb4ph6

>  <RESIDUE_NAME>  (1280) 
LYS   MET

>  <FRAG_NAME>  (1280) 
ETAM   MSM

>  <FRAG_ATOM_NUM>  (1280) 
fragi: 11  fragj: 9

>  <atom.prop.CHAIN_ID>  (1280) 
A A A A A A A A A A A Z Z Z Z Z Z Z Z Z

>  <atom.prop.IS_HEAVY_ATOM>  (1280) 
1 0 0 0 1 0 0 1 0 0 0 1 0 0 0 1 1 0 0 0

>  <DIFUSE_FUNC_ATOM>  (1280) 
n/a

>  <FINAL_SINGLE_POINT_ENERGY>  (1280) 
0

>  <NONCOV_INTER_ENERGY_QM>  (1280) 
0

>  <FF_Energy>  (1280) 
-4.79

>  <QM_Energy>  (1280) 
-12.3

>  <source>  (1280) 
ETAM_MSM

>  <Index>  (1280) 
8001

$$$$
ETAM-pdb4pkg-A-LYS-284:MSM-pdb4pkg-A-MET-176
     RDKit          3D

 20 18  0  0  0  0  0  0  0  0999 V2000
    1.2708    0.8651   -0.0000 C   0  0  0  0  0  0  0  0  0  0  0  0
    1.1915    1.5212    0.7098 H   0  0  0  0  0  0  0  0  0  0  0  0
    1.3358    1.3085   -0.8599 H   0  0  0  0  0  0  0  0  0  0  0  0
    2.1669    0.2666    0.1635 H   0  0  0  0  0  0  0  0  0  0  0  0
    0.0000    0.0000    0.0000 C   0  0  0  0  0  0  0  0  0  0  0  0
   -0.0013   -0.5569   -0.7944 H   0  0  0  0  0  0  0  0  0  0  0  0
   -0.0013   -0.5566    0.7938 H   0  0  0  0  0  0  0  0  0  0  0  0
   -1.2708    0.8084   -0.0000 N   0  0  0  0  0  4  0  0  0  0  0  0
   -1.9770    0.2661   -0.0003 H   0  0  0  0  0  0  0  0  0  0  0  0
   -1.3030    1.3244    0.7244 H   0  0  0  0  0  0  0  0  0  0  0  0
   -1.3031    1.3255   -0.7242 H   0  0  0  0  0  0  0  0  0  0  0  0
   -1.1421    3.3967    4.1689 C   0  0  0  0  0  0  0  0  0  0  0  0
   -0.6319    3.8290    3.4653 H   0  0  0  0  0  0  0  0  0  0  0  0
   -0.5408    3.0999    4.8700 H   0  0  0  0  0  0  0  0  0  0  0  0
   -1.8321    4.1262    4.5931 H   0  0  0  0  0  0  0  0  0  0  0  0
   -1.9121    1.9257    3.4558 S   0  0  0  0  0  0  0  0  0  0  0  0
   -3.3252    2.5988    2.5702 C   0  0  0  0  0  0  0  0  0  0  0  0
   -3.0083    3.2215    1.8969 H   0  0  0  0  0  0  0  0  0  0  0  0
   -3.9019    3.0585    3.2002 H   0  0  0  0  0  0  0  0  0  0  0  0
   -3.8079    1.8725    2.1474 H   0  0  0  0  0  0  0  0  0  0  0  0
  1  5  1  0
  5  8  1  0
  1  2  1  0
  1  3  1  0
  1  4  1  0
  5  6  1  0
  5  7  1  0
  8  9  1  0
  8 10  1  0
  8 11  1  0
 12 16  1  0
 16 17  1  0
 12 13  1  0
 12 14  1  0
 12 15  1  0
 17 18  1  0
 17 19  1  0
 17 20  1  0
M  CHG  1   8   1
M  END
>  <PDB_ID>  (1281) 
pdb4pkg

>  <RESIDUE_NAME>  (1281) 
LYS   MET

>  <FRAG_NAME>  (1281) 
ETAM   MSM

>  <FRAG_ATOM_NUM>  (1281) 
fragi: 11  fragj: 9

>  <atom.prop.CHAIN_ID>  (1281) 
A A A A A A A A A A A Z Z Z Z Z Z Z Z Z

>  <atom.prop.IS_HEAVY_ATOM>  (1281) 
1 0 0 0 1 0 0 1 0 0 0 1 0 0 0 1 1 0 0 0

>  <DIFUSE_FUNC_ATOM>  (1281) 
n/a

>  <FINAL_SINGLE_POINT_ENERGY>  (1281) 
0

>  <NONCOV_INTER_ENERGY_QM>  (1281) 
0

>  <FF_Energy>  (1281) 
-4.01

>  <QM_Energy>  (1281) 
-10.78

>  <source>  (1281) 
ETAM_MSM

>  <Index>  (1281) 
8005

$$$$
ETAM-pdb4plh-C-LYS-301:MSM-pdb4plh-C-MET-298
     RDKit          3D

 20 18  0  0  0  0  0  0  0  0999 V2000
    1.2067    0.8518    0.0000 C   0  0  0  0  0  0  0  0  0  0  0  0
    1.1238    1.5456    0.7050 H   0  0  0  0  0  0  0  0  0  0  0  0
    1.3190    1.2681   -0.8933 H   0  0  0  0  0  0  0  0  0  0  0  0
    2.0796    0.2350    0.2144 H   0  0  0  0  0  0  0  0  0  0  0  0
    0.0000    0.0000    0.0000 C   0  0  0  0  0  0  0  0  0  0  0  0
   -0.0086   -0.5798   -0.8161 H   0  0  0  0  0  0  0  0  0  0  0  0
   -0.0089   -0.5799    0.8161 H   0  0  0  0  0  0  0  0  0  0  0  0
   -1.2067    0.8456   -0.0000 N   0  0  0  0  0  4  0  0  0  0  0  0
   -1.9594    0.3618    0.4520 H   0  0  0  0  0  0  0  0  0  0  0  0
   -1.0222    1.6991    0.4907 H   0  0  0  0  0  0  0  0  0  0  0  0
   -1.4712    1.0589   -0.9431 H   0  0  0  0  0  0  0  0  0  0  0  0
   -1.8909    0.4594    5.0057 C   0  0  0  0  0  0  0  0  0  0  0  0
   -2.3205   -0.4403    5.2971 H   0  0  0  0  0  0  0  0  0  0  0  0
   -2.4641    1.1743    5.4942 H   0  0  0  0  0  0  0  0  0  0  0  0
   -0.8903    0.4948    5.4367 H   0  0  0  0  0  0  0  0  0  0  0  0
   -2.0383    0.6713    3.1689 S   0  0  0  0  0  0  0  0  0  0  0  0
   -1.9321    2.4776    3.0137 C   0  0  0  0  0  0  0  0  0  0  0  0
   -2.6659    2.8920    3.5467 H   0  0  0  0  0  0  0  0  0  0  0  0
   -1.0466    2.7798    3.3584 H   0  0  0  0  0  0  0  0  0  0  0  0
   -2.0274    2.7255    2.0530 H   0  0  0  0  0  0  0  0  0  0  0  0
  1  5  1  0
  5  8  1  0
  1  2  1  0
  1  3  1  0
  1  4  1  0
  5  6  1  0
  5  7  1  0
  8  9  1  0
  8 10  1  0
  8 11  1  0
 12 16  1  0
 16 17  1  0
 12 13  1  0
 12 14  1  0
 12 15  1  0
 17 18  1  0
 17 19  1  0
 17 20  1  0
M  CHG  1   8   1
M  END
>  <PDB_ID>  (1282) 
pdb4plh

>  <RESIDUE_NAME>  (1282) 
LYS   MET

>  <FRAG_NAME>  (1282) 
ETAM   MSM

>  <FRAG_ATOM_NUM>  (1282) 
fragi: 11  fragj: 9

>  <atom.prop.CHAIN_ID>  (1282) 
A A A A A A A A A A A Z Z Z Z Z Z Z Z Z

>  <atom.prop.IS_HEAVY_ATOM>  (1282) 
1 0 0 0 1 0 0 1 0 0 0 1 0 0 0 1 1 0 0 0

>  <DIFUSE_FUNC_ATOM>  (1282) 
n/a

>  <FINAL_SINGLE_POINT_ENERGY>  (1282) 
0

>  <NONCOV_INTER_ENERGY_QM>  (1282) 
0

>  <FF_Energy>  (1282) 
-4.57

>  <QM_Energy>  (1282) 
-10.54

>  <source>  (1282) 
ETAM_MSM

>  <Index>  (1282) 
8015

$$$$
ETAM-pdb4plh-A-LYS-44:MSM-pdb4plh-A-MET-40
     RDKit          3D

 20 18  0  0  0  0  0  0  0  0999 V2000
    1.2526    0.8945   -0.0000 C   0  0  0  0  0  0  0  0  0  0  0  0
    1.3451    1.3023    0.8986 H   0  0  0  0  0  0  0  0  0  0  0  0
    1.1390    1.5907   -0.6954 H   0  0  0  0  0  0  0  0  0  0  0  0
    2.1531    0.3210   -0.2198 H   0  0  0  0  0  0  0  0  0  0  0  0
    0.0000    0.0000    0.0000 C   0  0  0  0  0  0  0  0  0  0  0  0
    0.0155   -0.5715   -0.8166 H   0  0  0  0  0  0  0  0  0  0  0  0
    0.0150   -0.5719    0.8165 H   0  0  0  0  0  0  0  0  0  0  0  0
   -1.2526    0.8276   -0.0000 N   0  0  0  0  0  4  0  0  0  0  0  0
   -1.4306    1.1476   -0.9279 H   0  0  0  0  0  0  0  0  0  0  0  0
   -2.0130    0.2661    0.3171 H   0  0  0  0  0  0  0  0  0  0  0  0
   -1.1275    1.6069    0.6105 H   0  0  0  0  0  0  0  0  0  0  0  0
    0.8528   -2.2142    3.7564 C   0  0  0  0  0  0  0  0  0  0  0  0
    1.3278   -2.6098    2.9552 H   0  0  0  0  0  0  0  0  0  0  0  0
   -0.0073   -2.7298    3.8877 H   0  0  0  0  0  0  0  0  0  0  0  0
    1.4808   -2.3532    4.6364 H   0  0  0  0  0  0  0  0  0  0  0  0
    0.5406   -0.4753    3.5336 S   0  0  0  0  0  0  0  0  0  0  0  0
   -0.7727   -0.2029    4.7464 C   0  0  0  0  0  0  0  0  0  0  0  0
   -1.6526   -0.1751    4.2758 H   0  0  0  0  0  0  0  0  0  0  0  0
   -0.7671   -0.9501    5.4088 H   0  0  0  0  0  0  0  0  0  0  0  0
   -0.6113    0.6647    5.2138 H   0  0  0  0  0  0  0  0  0  0  0  0
  1  5  1  0
  5  8  1  0
  1  2  1  0
  1  3  1  0
  1  4  1  0
  5  6  1  0
  5  7  1  0
  8  9  1  0
  8 10  1  0
  8 11  1  0
 12 16  1  0
 16 17  1  0
 12 13  1  0
 12 14  1  0
 12 15  1  0
 17 18  1  0
 17 19  1  0
 17 20  1  0
M  CHG  1   8   1
M  END
>  <PDB_ID>  (1283) 
pdb4plh

>  <RESIDUE_NAME>  (1283) 
LYS   MET

>  <FRAG_NAME>  (1283) 
ETAM   MSM

>  <FRAG_ATOM_NUM>  (1283) 
fragi: 11  fragj: 9

>  <atom.prop.CHAIN_ID>  (1283) 
A A A A A A A A A A A Z Z Z Z Z Z Z Z Z

>  <atom.prop.IS_HEAVY_ATOM>  (1283) 
1 0 0 0 1 0 0 1 0 0 0 1 0 0 0 1 1 0 0 0

>  <DIFUSE_FUNC_ATOM>  (1283) 
n/a

>  <FINAL_SINGLE_POINT_ENERGY>  (1283) 
0

>  <NONCOV_INTER_ENERGY_QM>  (1283) 
0

>  <FF_Energy>  (1283) 
-3.8

>  <QM_Energy>  (1283) 
-9.28

>  <source>  (1283) 
ETAM_MSM

>  <Index>  (1283) 
8018

$$$$
ETAM-pdb4plt-A-LYS-44:MSM-pdb4plt-A-MET-40
     RDKit          3D

 20 18  0  0  0  0  0  0  0  0999 V2000
    1.2337    0.8476    0.0000 C   0  0  0  0  0  0  0  0  0  0  0  0
    1.2685    1.3762    0.8410 H   0  0  0  0  0  0  0  0  0  0  0  0
    1.2175    1.4510   -0.7893 H   0  0  0  0  0  0  0  0  0  0  0  0
    2.1279    0.2269   -0.0559 H   0  0  0  0  0  0  0  0  0  0  0  0
    0.0000    0.0000    0.0000 C   0  0  0  0  0  0  0  0  0  0  0  0
    0.0066   -0.5955   -0.8160 H   0  0  0  0  0  0  0  0  0  0  0  0
    0.0064   -0.5949    0.8161 H   0  0  0  0  0  0  0  0  0  0  0  0
   -1.2337    0.8046   -0.0000 N   0  0  0  0  0  4  0  0  0  0  0  0
   -1.8988    0.4071   -0.6356 H   0  0  0  0  0  0  0  0  0  0  0  0
   -1.6288    0.8208    0.9207 H   0  0  0  0  0  0  0  0  0  0  0  0
   -1.0266    1.7425   -0.2855 H   0  0  0  0  0  0  0  0  0  0  0  0
    0.5449   -1.8786    4.0061 C   0  0  0  0  0  0  0  0  0  0  0  0
    0.9870   -2.3706    3.2476 H   0  0  0  0  0  0  0  0  0  0  0  0
   -0.3884   -2.2369    4.1186 H   0  0  0  0  0  0  0  0  0  0  0  0
    1.1107   -2.0396    4.9237 H   0  0  0  0  0  0  0  0  0  0  0  0
    0.5151   -0.1144    3.6884 S   0  0  0  0  0  0  0  0  0  0  0  0
   -0.9621    0.3743    4.5872 C   0  0  0  0  0  0  0  0  0  0  0  0
   -1.6014   -0.3937    4.6193 H   0  0  0  0  0  0  0  0  0  0  0  0
   -0.7127    0.6401    5.5185 H   0  0  0  0  0  0  0  0  0  0  0  0
   -1.3935    1.1484    4.1233 H   0  0  0  0  0  0  0  0  0  0  0  0
  1  5  1  0
  5  8  1  0
  1  2  1  0
  1  3  1  0
  1  4  1  0
  5  6  1  0
  5  7  1  0
  8  9  1  0
  8 10  1  0
  8 11  1  0
 12 16  1  0
 16 17  1  0
 12 13  1  0
 12 14  1  0
 12 15  1  0
 17 18  1  0
 17 19  1  0
 17 20  1  0
M  CHG  1   8   1
M  END
>  <PDB_ID>  (1284) 
pdb4plt

>  <RESIDUE_NAME>  (1284) 
LYS   MET

>  <FRAG_NAME>  (1284) 
ETAM   MSM

>  <FRAG_ATOM_NUM>  (1284) 
fragi: 11  fragj: 9

>  <atom.prop.CHAIN_ID>  (1284) 
A A A A A A A A A A A Z Z Z Z Z Z Z Z Z

>  <atom.prop.IS_HEAVY_ATOM>  (1284) 
1 0 0 0 1 0 0 1 0 0 0 1 0 0 0 1 1 0 0 0

>  <DIFUSE_FUNC_ATOM>  (1284) 
n/a

>  <FINAL_SINGLE_POINT_ENERGY>  (1284) 
0

>  <NONCOV_INTER_ENERGY_QM>  (1284) 
0

>  <FF_Energy>  (1284) 
-3.89

>  <QM_Energy>  (1284) 
-9.29

>  <source>  (1284) 
ETAM_MSM

>  <Index>  (1284) 
8020

$$$$
ETAM-pdb4pgg-B-LYS-308:MSM-pdb4pgg-A-MET-18
     RDKit          3D

 20 18  0  0  0  0  0  0  0  0999 V2000
    1.2489    0.8827   -0.0000 C   0  0  0  0  0  0  0  0  0  0  0  0
    1.1726    1.5359    0.7497 H   0  0  0  0  0  0  0  0  0  0  0  0
    1.2924    1.3666   -0.8703 H   0  0  0  0  0  0  0  0  0  0  0  0
    2.1642    0.3049    0.1283 H   0  0  0  0  0  0  0  0  0  0  0  0
    0.0000    0.0000    0.0000 C   0  0  0  0  0  0  0  0  0  0  0  0
    0.0118   -0.5771   -0.8160 H   0  0  0  0  0  0  0  0  0  0  0  0
    0.0117   -0.5771    0.8162 H   0  0  0  0  0  0  0  0  0  0  0  0
   -1.2489    0.8248    0.0000 N   0  0  0  0  0  4  0  0  0  0  0  0
   -1.7050    0.7280    0.8830 H   0  0  0  0  0  0  0  0  0  0  0  0
   -1.0094    1.7817   -0.1539 H   0  0  0  0  0  0  0  0  0  0  0  0
   -1.8521    0.5066   -0.7289 H   0  0  0  0  0  0  0  0  0  0  0  0
    0.1220    1.7481    5.1506 C   0  0  0  0  0  0  0  0  0  0  0  0
    0.1491    0.8499    5.6300 H   0  0  0  0  0  0  0  0  0  0  0  0
   -0.8280    2.1010    5.2468 H   0  0  0  0  0  0  0  0  0  0  0  0
    0.8054    2.4345    5.6504 H   0  0  0  0  0  0  0  0  0  0  0  0
    0.5533    1.5501    3.4034 S   0  0  0  0  0  0  0  0  0  0  0  0
    0.1532    3.1855    2.7880 C   0  0  0  0  0  0  0  0  0  0  0  0
    0.7770    3.8572    3.1908 H   0  0  0  0  0  0  0  0  0  0  0  0
    0.2467    3.2007    1.7917 H   0  0  0  0  0  0  0  0  0  0  0  0
   -0.7889    3.4160    3.0364 H   0  0  0  0  0  0  0  0  0  0  0  0
  1  5  1  0
  5  8  1  0
  1  2  1  0
  1  3  1  0
  1  4  1  0
  5  6  1  0
  5  7  1  0
  8  9  1  0
  8 10  1  0
  8 11  1  0
 12 16  1  0
 16 17  1  0
 12 13  1  0
 12 14  1  0
 12 15  1  0
 17 18  1  0
 17 19  1  0
 17 20  1  0
M  CHG  1   8   1
M  END
>  <PDB_ID>  (1285) 
pdb4pgg

>  <RESIDUE_NAME>  (1285) 
LYS   MET

>  <FRAG_NAME>  (1285) 
ETAM   MSM

>  <FRAG_ATOM_NUM>  (1285) 
fragi: 11  fragj: 9

>  <atom.prop.CHAIN_ID>  (1285) 
A A A A A A A A A A A Z Z Z Z Z Z Z Z Z

>  <atom.prop.IS_HEAVY_ATOM>  (1285) 
1 0 0 0 1 0 0 1 0 0 0 1 0 0 0 1 1 0 0 0

>  <DIFUSE_FUNC_ATOM>  (1285) 
n/a

>  <FINAL_SINGLE_POINT_ENERGY>  (1285) 
0

>  <NONCOV_INTER_ENERGY_QM>  (1285) 
0

>  <FF_Energy>  (1285) 
-3.03

>  <QM_Energy>  (1285) 
-8.51

>  <source>  (1285) 
ETAM_MSM

>  <Index>  (1285) 
8030

$$$$
ETAM-pdb4pem-B-LYS-797:MSM-pdb4pem-A-MET-16
     RDKit          3D

 20 18  0  0  0  0  0  0  0  0999 V2000
    1.2449    0.8618    0.0000 C   0  0  0  0  0  0  0  0  0  0  0  0
    1.1166    1.6080   -0.6388 H   0  0  0  0  0  0  0  0  0  0  0  0
    2.0199    0.3024   -0.2563 H   0  0  0  0  0  0  0  0  0  0  0  0
    1.4158    1.2720    0.9953 H   0  0  0  0  0  0  0  0  0  0  0  0
    0.0000    0.0000    0.0000 C   0  0  0  0  0  0  0  0  0  0  0  0
   -0.0047   -0.5760   -0.8161 H   0  0  0  0  0  0  0  0  0  0  0  0
   -0.0055   -0.5763    0.8164 H   0  0  0  0  0  0  0  0  0  0  0  0
   -1.2449    0.8476   -0.0000 N   0  0  0  0  0  4  0  0  0  0  0  0
   -2.0368    0.2574    0.1363 H   0  0  0  0  0  0  0  0  0  0  0  0
   -1.1819    1.5125    0.7397 H   0  0  0  0  0  0  0  0  0  0  0  0
   -1.3155    1.3171   -0.8769 H   0  0  0  0  0  0  0  0  0  0  0  0
   -4.9550   -1.6116   -1.3006 C   0  0  0  0  0  0  0  0  0  0  0  0
   -5.9339   -1.2850   -1.2528 H   0  0  0  0  0  0  0  0  0  0  0  0
   -5.0168   -2.5457   -1.7368 H   0  0  0  0  0  0  0  0  0  0  0  0
   -4.4168   -0.9561   -1.9854 H   0  0  0  0  0  0  0  0  0  0  0  0
   -4.2329   -1.7187    0.3442 S   0  0  0  0  0  0  0  0  0  0  0  0
   -5.6326   -2.2640    1.3127 C   0  0  0  0  0  0  0  0  0  0  0  0
   -6.4806   -2.0904    0.8085 H   0  0  0  0  0  0  0  0  0  0  0  0
   -5.5536   -3.2452    1.4968 H   0  0  0  0  0  0  0  0  0  0  0  0
   -5.6568   -1.7660    2.1812 H   0  0  0  0  0  0  0  0  0  0  0  0
  1  5  1  0
  5  8  1  0
  1  2  1  0
  1  3  1  0
  1  4  1  0
  5  6  1  0
  5  7  1  0
  8  9  1  0
  8 10  1  0
  8 11  1  0
 12 16  1  0
 16 17  1  0
 12 13  1  0
 12 14  1  0
 12 15  1  0
 17 18  1  0
 17 19  1  0
 17 20  1  0
M  CHG  1   8   1
M  END
>  <PDB_ID>  (1286) 
pdb4pem

>  <RESIDUE_NAME>  (1286) 
LYS   MET

>  <FRAG_NAME>  (1286) 
ETAM   MSM

>  <FRAG_ATOM_NUM>  (1286) 
fragi: 11  fragj: 9

>  <atom.prop.CHAIN_ID>  (1286) 
A A A A A A A A A A A Z Z Z Z Z Z Z Z Z

>  <atom.prop.IS_HEAVY_ATOM>  (1286) 
1 0 0 0 1 0 0 1 0 0 0 1 0 0 0 1 1 0 0 0

>  <DIFUSE_FUNC_ATOM>  (1286) 
n/a

>  <FINAL_SINGLE_POINT_ENERGY>  (1286) 
0

>  <NONCOV_INTER_ENERGY_QM>  (1286) 
0

>  <FF_Energy>  (1286) 
-4.44

>  <QM_Energy>  (1286) 
-10.79

>  <source>  (1286) 
ETAM_MSM

>  <Index>  (1286) 
8032

$$$$
ETAM-pdb3rde-B-LYS-189:MSM-pdb3rde-B-MET-591
     RDKit          3D

 20 18  0  0  0  0  0  0  0  0999 V2000
    1.2370    0.8251    0.0000 C   0  0  0  0  0  0  0  0  0  0  0  0
    1.2592    1.4021    0.8193 H   0  0  0  0  0  0  0  0  0  0  0  0
    1.2542    1.4087   -0.8148 H   0  0  0  0  0  0  0  0  0  0  0  0
    2.1477    0.2262   -0.0042 H   0  0  0  0  0  0  0  0  0  0  0  0
    0.0000    0.0000    0.0000 C   0  0  0  0  0  0  0  0  0  0  0  0
   -0.0313   -0.5784   -0.8162 H   0  0  0  0  0  0  0  0  0  0  0  0
   -0.0308   -0.5789    0.8161 H   0  0  0  0  0  0  0  0  0  0  0  0
   -1.2370    0.8749    0.0000 N   0  0  0  0  0  4  0  0  0  0  0  0
   -1.6629    0.8238    0.8974 H   0  0  0  0  0  0  0  0  0  0  0  0
   -0.9647    1.8108   -0.1995 H   0  0  0  0  0  0  0  0  0  0  0  0
   -1.8626    0.5410   -0.6976 H   0  0  0  0  0  0  0  0  0  0  0  0
   -3.4797    4.8867   -0.8546 C   0  0  0  0  0  0  0  0  0  0  0  0
   -4.4133    5.1474   -1.1389 H   0  0  0  0  0  0  0  0  0  0  0  0
   -2.9152    5.7245   -0.8405 H   0  0  0  0  0  0  0  0  0  0  0  0
   -3.5231    4.4757    0.1540 H   0  0  0  0  0  0  0  0  0  0  0  0
   -2.7844    3.6584   -1.9693 S   0  0  0  0  0  0  0  0  0  0  0  0
   -4.1567    2.4307   -1.9213 C   0  0  0  0  0  0  0  0  0  0  0  0
   -4.4173    2.2196   -2.8562 H   0  0  0  0  0  0  0  0  0  0  0  0
   -3.8288    1.6169   -1.4563 H   0  0  0  0  0  0  0  0  0  0  0  0
   -4.9170    2.8343   -1.4276 H   0  0  0  0  0  0  0  0  0  0  0  0
  1  5  1  0
  5  8  1  0
  1  2  1  0
  1  3  1  0
  1  4  1  0
  5  6  1  0
  5  7  1  0
  8  9  1  0
  8 10  1  0
  8 11  1  0
 12 16  1  0
 16 17  1  0
 12 13  1  0
 12 14  1  0
 12 15  1  0
 17 18  1  0
 17 19  1  0
 17 20  1  0
M  CHG  1   8   1
M  END
>  <PDB_ID>  (1287) 
pdb3rde

>  <RESIDUE_NAME>  (1287) 
LYS   MET

>  <FRAG_NAME>  (1287) 
ETAM   MSM

>  <FRAG_ATOM_NUM>  (1287) 
fragi: 11  fragj: 9

>  <atom.prop.CHAIN_ID>  (1287) 
A A A A A A A A A A A Z Z Z Z Z Z Z Z Z

>  <atom.prop.IS_HEAVY_ATOM>  (1287) 
1 0 0 0 1 0 0 1 0 0 0 1 0 0 0 1 1 0 0 0

>  <DIFUSE_FUNC_ATOM>  (1287) 
n/a

>  <FINAL_SINGLE_POINT_ENERGY>  (1287) 
0

>  <NONCOV_INTER_ENERGY_QM>  (1287) 
0

>  <FF_Energy>  (1287) 
-2.98

>  <QM_Energy>  (1287) 
-8.82

>  <source>  (1287) 
ETAM_MSM

>  <Index>  (1287) 
8034

$$$$
ETAM-pdb4plc-B-LYS-48:MSM-pdb4plc-B-MET-44
     RDKit          3D

 20 18  0  0  0  0  0  0  0  0999 V2000
    1.2396    0.8657   -0.0000 C   0  0  0  0  0  0  0  0  0  0  0  0
    1.2206    1.4279    0.7902 H   0  0  0  0  0  0  0  0  0  0  0  0
    1.2328    1.4100   -0.8024 H   0  0  0  0  0  0  0  0  0  0  0  0
    2.1409    0.2528    0.0138 H   0  0  0  0  0  0  0  0  0  0  0  0
    0.0000    0.0000    0.0000 C   0  0  0  0  0  0  0  0  0  0  0  0
   -0.0015   -0.5553   -0.7957 H   0  0  0  0  0  0  0  0  0  0  0  0
   -0.0010   -0.5556    0.7958 H   0  0  0  0  0  0  0  0  0  0  0  0
   -1.2396    0.8070    0.0000 N   0  0  0  0  0  4  0  0  0  0  0  0
   -1.2663    1.3238   -0.7242 H   0  0  0  0  0  0  0  0  0  0  0  0
   -1.9513    0.2728    0.0005 H   0  0  0  0  0  0  0  0  0  0  0  0
   -1.2661    1.3237    0.7239 H   0  0  0  0  0  0  0  0  0  0  0  0
    0.5497   -0.9842    4.3301 C   0  0  0  0  0  0  0  0  0  0  0  0
    1.0917   -1.4725    3.6905 H   0  0  0  0  0  0  0  0  0  0  0  0
   -0.3155   -1.4097    4.4315 H   0  0  0  0  0  0  0  0  0  0  0  0
    1.0577   -0.9686    5.2943 H   0  0  0  0  0  0  0  0  0  0  0  0
    0.2892    0.6755    3.6949 S   0  0  0  0  0  0  0  0  0  0  0  0
   -1.0731    1.2228    4.7251 C   0  0  0  0  0  0  0  0  0  0  0  0
   -1.3139    2.1284    4.4744 H   0  0  0  0  0  0  0  0  0  0  0  0
   -1.8289    0.6302    4.5901 H   0  0  0  0  0  0  0  0  0  0  0  0
   -0.7952    1.2001    5.6540 H   0  0  0  0  0  0  0  0  0  0  0  0
  1  5  1  0
  5  8  1  0
  1  2  1  0
  1  3  1  0
  1  4  1  0
  5  6  1  0
  5  7  1  0
  8  9  1  0
  8 10  1  0
  8 11  1  0
 12 16  1  0
 16 17  1  0
 12 13  1  0
 12 14  1  0
 12 15  1  0
 17 18  1  0
 17 19  1  0
 17 20  1  0
M  CHG  1   8   1
M  END
>  <PDB_ID>  (1288) 
pdb4plc

>  <RESIDUE_NAME>  (1288) 
LYS   MET

>  <FRAG_NAME>  (1288) 
ETAM   MSM

>  <FRAG_ATOM_NUM>  (1288) 
fragi: 11  fragj: 9

>  <atom.prop.CHAIN_ID>  (1288) 
A A A A A A A A A A A Z Z Z Z Z Z Z Z Z

>  <atom.prop.IS_HEAVY_ATOM>  (1288) 
1 0 0 0 1 0 0 1 0 0 0 1 0 0 0 1 1 0 0 0

>  <DIFUSE_FUNC_ATOM>  (1288) 
n/a

>  <FINAL_SINGLE_POINT_ENERGY>  (1288) 
0

>  <NONCOV_INTER_ENERGY_QM>  (1288) 
0

>  <FF_Energy>  (1288) 
-4.5

>  <QM_Energy>  (1288) 
-10.83

>  <source>  (1288) 
ETAM_MSM

>  <Index>  (1288) 
8035

$$$$
ETAM-pdb4plh-B-LYS-44:MSM-pdb4plh-B-MET-40
     RDKit          3D

 20 18  0  0  0  0  0  0  0  0999 V2000
    1.2545    0.8733   -0.0000 C   0  0  0  0  0  0  0  0  0  0  0  0
    1.2860    1.3859    0.8460 H   0  0  0  0  0  0  0  0  0  0  0  0
    1.2213    1.4777   -0.7826 H   0  0  0  0  0  0  0  0  0  0  0  0
    2.1551    0.2632   -0.0695 H   0  0  0  0  0  0  0  0  0  0  0  0
    0.0000    0.0000    0.0000 C   0  0  0  0  0  0  0  0  0  0  0  0
   -0.0002   -0.5731   -0.8157 H   0  0  0  0  0  0  0  0  0  0  0  0
    0.0001   -0.5733    0.8161 H   0  0  0  0  0  0  0  0  0  0  0  0
   -1.2545    0.8458   -0.0000 N   0  0  0  0  0  4  0  0  0  0  0  0
   -2.0122    0.2926   -0.3313 H   0  0  0  0  0  0  0  0  0  0  0  0
   -1.4330    1.1520    0.9304 H   0  0  0  0  0  0  0  0  0  0  0  0
   -1.1119    1.6282   -0.5981 H   0  0  0  0  0  0  0  0  0  0  0  0
    0.4438   -1.6244    4.2160 C   0  0  0  0  0  0  0  0  0  0  0  0
    0.9138   -2.1687    3.5078 H   0  0  0  0  0  0  0  0  0  0  0  0
   -0.4619   -2.0407    4.3780 H   0  0  0  0  0  0  0  0  0  0  0  0
    1.0236   -1.6708    5.1378 H   0  0  0  0  0  0  0  0  0  0  0  0
    0.2847    0.0895    3.7127 S   0  0  0  0  0  0  0  0  0  0  0  0
   -1.1102    0.5730    4.7641 C   0  0  0  0  0  0  0  0  0  0  0  0
   -0.8167    1.3016    5.3791 H   0  0  0  0  0  0  0  0  0  0  0  0
   -1.8565    0.8967    4.1862 H   0  0  0  0  0  0  0  0  0  0  0  0
   -1.4082   -0.2185    5.2927 H   0  0  0  0  0  0  0  0  0  0  0  0
  1  5  1  0
  5  8  1  0
  1  2  1  0
  1  3  1  0
  1  4  1  0
  5  6  1  0
  5  7  1  0
  8  9  1  0
  8 10  1  0
  8 11  1  0
 12 16  1  0
 16 17  1  0
 12 13  1  0
 12 14  1  0
 12 15  1  0
 17 18  1  0
 17 19  1  0
 17 20  1  0
M  CHG  1   8   1
M  END
>  <PDB_ID>  (1289) 
pdb4plh

>  <RESIDUE_NAME>  (1289) 
LYS   MET

>  <FRAG_NAME>  (1289) 
ETAM   MSM

>  <FRAG_ATOM_NUM>  (1289) 
fragi: 11  fragj: 9

>  <atom.prop.CHAIN_ID>  (1289) 
A A A A A A A A A A A Z Z Z Z Z Z Z Z Z

>  <atom.prop.IS_HEAVY_ATOM>  (1289) 
1 0 0 0 1 0 0 1 0 0 0 1 0 0 0 1 1 0 0 0

>  <DIFUSE_FUNC_ATOM>  (1289) 
n/a

>  <FINAL_SINGLE_POINT_ENERGY>  (1289) 
0

>  <NONCOV_INTER_ENERGY_QM>  (1289) 
0

>  <FF_Energy>  (1289) 
-4.31

>  <QM_Energy>  (1289) 
-10.26

>  <source>  (1289) 
ETAM_MSM

>  <Index>  (1289) 
8036

$$$$
ETAM-pdb3rmg-A-LYS-18:MSM-pdb3rmg-A-MET-47
     RDKit          3D

 20 18  0  0  0  0  0  0  0  0999 V2000
    1.2602    0.8647    0.0000 C   0  0  0  0  0  0  0  0  0  0  0  0
    2.0318    0.2940    0.2599 H   0  0  0  0  0  0  0  0  0  0  0  0
    1.1354    1.5999    0.6583 H   0  0  0  0  0  0  0  0  0  0  0  0
    1.4521    1.2955   -0.9827 H   0  0  0  0  0  0  0  0  0  0  0  0
    0.0000    0.0000    0.0000 C   0  0  0  0  0  0  0  0  0  0  0  0
    0.0138   -0.5904   -0.8161 H   0  0  0  0  0  0  0  0  0  0  0  0
    0.0133   -0.5904    0.8165 H   0  0  0  0  0  0  0  0  0  0  0  0
   -1.2602    0.8024    0.0000 N   0  0  0  0  0  4  0  0  0  0  0  0
   -1.9895    0.2691    0.4247 H   0  0  0  0  0  0  0  0  0  0  0  0
   -1.1136    1.6444    0.5165 H   0  0  0  0  0  0  0  0  0  0  0  0
   -1.5085    1.0241   -0.9419 H   0  0  0  0  0  0  0  0  0  0  0  0
    0.1656   -4.1191   -1.0652 C   0  0  0  0  0  0  0  0  0  0  0  0
    0.4053   -3.9369   -2.0411 H   0  0  0  0  0  0  0  0  0  0  0  0
   -0.8536   -4.1842   -1.0317 H   0  0  0  0  0  0  0  0  0  0  0  0
    0.5866   -5.0826   -0.7780 H   0  0  0  0  0  0  0  0  0  0  0  0
    0.7564   -2.7938   -0.0029 S   0  0  0  0  0  0  0  0  0  0  0  0
    0.1377   -3.3379    1.5970 C   0  0  0  0  0  0  0  0  0  0  0  0
   -0.5553   -2.6943    1.9206 H   0  0  0  0  0  0  0  0  0  0  0  0
   -0.2670   -4.2471    1.5035 H   0  0  0  0  0  0  0  0  0  0  0  0
    0.8938   -3.3737    2.2499 H   0  0  0  0  0  0  0  0  0  0  0  0
  1  5  1  0
  5  8  1  0
  1  2  1  0
  1  3  1  0
  1  4  1  0
  5  6  1  0
  5  7  1  0
  8  9  1  0
  8 10  1  0
  8 11  1  0
 12 16  1  0
 16 17  1  0
 12 13  1  0
 12 14  1  0
 12 15  1  0
 17 18  1  0
 17 19  1  0
 17 20  1  0
M  CHG  1   8   1
M  END
>  <PDB_ID>  (1290) 
pdb3rmg

>  <RESIDUE_NAME>  (1290) 
LYS   MET

>  <FRAG_NAME>  (1290) 
ETAM   MSM

>  <FRAG_ATOM_NUM>  (1290) 
fragi: 11  fragj: 9

>  <atom.prop.CHAIN_ID>  (1290) 
A A A A A A A A A A A Z Z Z Z Z Z Z Z Z

>  <atom.prop.IS_HEAVY_ATOM>  (1290) 
1 0 0 0 1 0 0 1 0 0 0 1 0 0 0 1 1 0 0 0

>  <DIFUSE_FUNC_ATOM>  (1290) 
n/a

>  <FINAL_SINGLE_POINT_ENERGY>  (1290) 
0

>  <NONCOV_INTER_ENERGY_QM>  (1290) 
0

>  <FF_Energy>  (1290) 
7.68

>  <QM_Energy>  (1290) 
-1.09

>  <source>  (1290) 
ETAM_MSM

>  <Index>  (1290) 
8049

$$$$
ETAM-pdb4plc-C-LYS-48:MSM-pdb4plc-C-MET-44
     RDKit          3D

 20 18  0  0  0  0  0  0  0  0999 V2000
    1.2415    0.8708   -0.0000 C   0  0  0  0  0  0  0  0  0  0  0  0
    1.3107    1.3031    0.8662 H   0  0  0  0  0  0  0  0  0  0  0  0
    1.1480    1.5338   -0.7010 H   0  0  0  0  0  0  0  0  0  0  0  0
    2.1387    0.2785   -0.1796 H   0  0  0  0  0  0  0  0  0  0  0  0
    0.0000    0.0000    0.0000 C   0  0  0  0  0  0  0  0  0  0  0  0
   -0.0015   -0.5551   -0.7955 H   0  0  0  0  0  0  0  0  0  0  0  0
   -0.0024   -0.5545    0.7963 H   0  0  0  0  0  0  0  0  0  0  0  0
   -1.2415    0.8166    0.0000 N   0  0  0  0  0  4  0  0  0  0  0  0
   -1.2662    1.3333    0.7242 H   0  0  0  0  0  0  0  0  0  0  0  0
   -1.2655    1.3328   -0.7258 H   0  0  0  0  0  0  0  0  0  0  0  0
   -1.9558    0.2849    0.0001 H   0  0  0  0  0  0  0  0  0  0  0  0
    1.1352   -2.1570    3.8961 C   0  0  0  0  0  0  0  0  0  0  0  0
    1.5589   -2.5138    3.0990 H   0  0  0  0  0  0  0  0  0  0  0  0
    0.2787   -2.5880    4.0387 H   0  0  0  0  0  0  0  0  0  0  0  0
    1.7772   -2.3483    4.7559 H   0  0  0  0  0  0  0  0  0  0  0  0
    0.8405   -0.4019    3.6318 S   0  0  0  0  0  0  0  0  0  0  0  0
   -0.3182   -0.0556    4.9564 C   0  0  0  0  0  0  0  0  0  0  0  0
   -0.5624    0.8824    4.9240 H   0  0  0  0  0  0  0  0  0  0  0  0
   -1.1071   -0.6076    4.8383 H   0  0  0  0  0  0  0  0  0  0  0  0
    0.1043   -0.2585    5.8058 H   0  0  0  0  0  0  0  0  0  0  0  0
  1  5  1  0
  5  8  1  0
  1  2  1  0
  1  3  1  0
  1  4  1  0
  5  6  1  0
  5  7  1  0
  8  9  1  0
  8 10  1  0
  8 11  1  0
 12 16  1  0
 16 17  1  0
 12 13  1  0
 12 14  1  0
 12 15  1  0
 17 18  1  0
 17 19  1  0
 17 20  1  0
M  CHG  1   8   1
M  END
>  <PDB_ID>  (1291) 
pdb4plc

>  <RESIDUE_NAME>  (1291) 
LYS   MET

>  <FRAG_NAME>  (1291) 
ETAM   MSM

>  <FRAG_ATOM_NUM>  (1291) 
fragi: 11  fragj: 9

>  <atom.prop.CHAIN_ID>  (1291) 
A A A A A A A A A A A Z Z Z Z Z Z Z Z Z

>  <atom.prop.IS_HEAVY_ATOM>  (1291) 
1 0 0 0 1 0 0 1 0 0 0 1 0 0 0 1 1 0 0 0

>  <DIFUSE_FUNC_ATOM>  (1291) 
n/a

>  <FINAL_SINGLE_POINT_ENERGY>  (1291) 
0

>  <NONCOV_INTER_ENERGY_QM>  (1291) 
0

>  <FF_Energy>  (1291) 
-3.95

>  <QM_Energy>  (1291) 
-9.21

>  <source>  (1291) 
ETAM_MSM

>  <Index>  (1291) 
8056

$$$$
ETAM-pdb3rnm-A-LYS-92:MSM-pdb3rnm-A-MET-89
     RDKit          3D

 20 18  0  0  0  0  0  0  0  0999 V2000
    1.2641    0.8490    0.0000 C   0  0  0  0  0  0  0  0  0  0  0  0
    1.2111    1.4897    0.7563 H   0  0  0  0  0  0  0  0  0  0  0  0
    1.3169    1.3307   -0.8660 H   0  0  0  0  0  0  0  0  0  0  0  0
    2.1475    0.2219    0.1198 H   0  0  0  0  0  0  0  0  0  0  0  0
    0.0000    0.0000    0.0000 C   0  0  0  0  0  0  0  0  0  0  0  0
   -0.0044   -0.5859   -0.8163 H   0  0  0  0  0  0  0  0  0  0  0  0
   -0.0043   -0.5855    0.8161 H   0  0  0  0  0  0  0  0  0  0  0  0
   -1.2641    0.8320   -0.0000 N   0  0  0  0  0  4  0  0  0  0  0  0
   -1.6467    0.8307    0.9194 H   0  0  0  0  0  0  0  0  0  0  0  0
   -1.0345    1.7605   -0.2762 H   0  0  0  0  0  0  0  0  0  0  0  0
   -1.9099    0.4309   -0.6421 H   0  0  0  0  0  0  0  0  0  0  0  0
   -1.7684    0.5510   -4.7238 C   0  0  0  0  0  0  0  0  0  0  0  0
   -1.1858    0.6976   -5.5465 H   0  0  0  0  0  0  0  0  0  0  0  0
   -2.7317    0.6935   -5.0220 H   0  0  0  0  0  0  0  0  0  0  0  0
   -1.6545   -0.4832   -4.3991 H   0  0  0  0  0  0  0  0  0  0  0  0
   -1.3257    1.6985   -3.4086 S   0  0  0  0  0  0  0  0  0  0  0  0
   -1.4425    3.2596   -4.2858 C   0  0  0  0  0  0  0  0  0  0  0  0
   -1.3400    3.0997   -5.2683 H   0  0  0  0  0  0  0  0  0  0  0  0
   -2.3343    3.6772   -4.1076 H   0  0  0  0  0  0  0  0  0  0  0  0
   -0.7188    3.8740   -3.9713 H   0  0  0  0  0  0  0  0  0  0  0  0
  1  5  1  0
  5  8  1  0
  1  2  1  0
  1  3  1  0
  1  4  1  0
  5  6  1  0
  5  7  1  0
  8  9  1  0
  8 10  1  0
  8 11  1  0
 12 16  1  0
 16 17  1  0
 12 13  1  0
 12 14  1  0
 12 15  1  0
 17 18  1  0
 17 19  1  0
 17 20  1  0
M  CHG  1   8   1
M  END
>  <PDB_ID>  (1292) 
pdb3rnm

>  <RESIDUE_NAME>  (1292) 
LYS   MET

>  <FRAG_NAME>  (1292) 
ETAM   MSM

>  <FRAG_ATOM_NUM>  (1292) 
fragi: 11  fragj: 9

>  <atom.prop.CHAIN_ID>  (1292) 
A A A A A A A A A A A Z Z Z Z Z Z Z Z Z

>  <atom.prop.IS_HEAVY_ATOM>  (1292) 
1 0 0 0 1 0 0 1 0 0 0 1 0 0 0 1 1 0 0 0

>  <DIFUSE_FUNC_ATOM>  (1292) 
n/a

>  <FINAL_SINGLE_POINT_ENERGY>  (1292) 
0

>  <NONCOV_INTER_ENERGY_QM>  (1292) 
0

>  <FF_Energy>  (1292) 
-5.62

>  <QM_Energy>  (1292) 
-12.98

>  <source>  (1292) 
ETAM_MSM

>  <Index>  (1292) 
8059

$$$$
ETAM-pdb4plh-D-LYS-44:MSM-pdb4plh-D-MET-40
     RDKit          3D

 20 18  0  0  0  0  0  0  0  0999 V2000
    1.2341    0.8996    0.0000 C   0  0  0  0  0  0  0  0  0  0  0  0
    1.2392    1.4278    0.8413 H   0  0  0  0  0  0  0  0  0  0  0  0
    1.1850    1.5008   -0.7894 H   0  0  0  0  0  0  0  0  0  0  0  0
    2.1527    0.3156   -0.0559 H   0  0  0  0  0  0  0  0  0  0  0  0
    0.0000    0.0000    0.0000 C   0  0  0  0  0  0  0  0  0  0  0  0
    0.0247   -0.5758   -0.8160 H   0  0  0  0  0  0  0  0  0  0  0  0
    0.0239   -0.5763    0.8161 H   0  0  0  0  0  0  0  0  0  0  0  0
   -1.2341    0.8107    0.0000 N   0  0  0  0  0  4  0  0  0  0  0  0
   -1.2869    1.3448   -0.8456 H   0  0  0  0  0  0  0  0  0  0  0  0
   -2.0330    0.2097    0.0617 H   0  0  0  0  0  0  0  0  0  0  0  0
   -1.2289    1.4334    0.7842 H   0  0  0  0  0  0  0  0  0  0  0  0
    0.9273   -1.8012    3.8636 C   0  0  0  0  0  0  0  0  0  0  0  0
    1.4760   -2.1286    3.0849 H   0  0  0  0  0  0  0  0  0  0  0  0
    0.0732   -2.3349    3.8941 H   0  0  0  0  0  0  0  0  0  0  0  0
    1.4841   -1.9609    4.7868 H   0  0  0  0  0  0  0  0  0  0  0  0
    0.5798   -0.0473    3.7096 S   0  0  0  0  0  0  0  0  0  0  0  0
   -0.8804    0.0513    4.7953 C   0  0  0  0  0  0  0  0  0  0  0  0
   -1.5156   -0.6739    4.5448 H   0  0  0  0  0  0  0  0  0  0  0  0
   -0.5851   -0.0609    5.7399 H   0  0  0  0  0  0  0  0  0  0  0  0
   -1.3103    0.9416    4.6734 H   0  0  0  0  0  0  0  0  0  0  0  0
  1  5  1  0
  5  8  1  0
  1  2  1  0
  1  3  1  0
  1  4  1  0
  5  6  1  0
  5  7  1  0
  8  9  1  0
  8 10  1  0
  8 11  1  0
 12 16  1  0
 16 17  1  0
 12 13  1  0
 12 14  1  0
 12 15  1  0
 17 18  1  0
 17 19  1  0
 17 20  1  0
M  CHG  1   8   1
M  END
>  <PDB_ID>  (1293) 
pdb4plh

>  <RESIDUE_NAME>  (1293) 
LYS   MET

>  <FRAG_NAME>  (1293) 
ETAM   MSM

>  <FRAG_ATOM_NUM>  (1293) 
fragi: 11  fragj: 9

>  <atom.prop.CHAIN_ID>  (1293) 
A A A A A A A A A A A Z Z Z Z Z Z Z Z Z

>  <atom.prop.IS_HEAVY_ATOM>  (1293) 
1 0 0 0 1 0 0 1 0 0 0 1 0 0 0 1 1 0 0 0

>  <DIFUSE_FUNC_ATOM>  (1293) 
n/a

>  <FINAL_SINGLE_POINT_ENERGY>  (1293) 
0

>  <NONCOV_INTER_ENERGY_QM>  (1293) 
0

>  <FF_Energy>  (1293) 
-4.06

>  <QM_Energy>  (1293) 
-9.34

>  <source>  (1293) 
ETAM_MSM

>  <Index>  (1293) 
8061

$$$$
ETAM-pdb4ptv-A-LYS-141:MSM-pdb4ptv-A-MET-203
     RDKit          3D

 20 18  0  0  0  0  0  0  0  0999 V2000
    1.2450    0.8753    0.0000 C   0  0  0  0  0  0  0  0  0  0  0  0
    1.5502    0.9918   -0.9370 H   0  0  0  0  0  0  0  0  0  0  0  0
    1.9455    0.4296    0.5440 H   0  0  0  0  0  0  0  0  0  0  0  0
    1.0339    1.8555    0.4276 H   0  0  0  0  0  0  0  0  0  0  0  0
    0.0000    0.0000    0.0000 C   0  0  0  0  0  0  0  0  0  0  0  0
    0.0132   -0.5826   -0.8159 H   0  0  0  0  0  0  0  0  0  0  0  0
    0.0135   -0.5826    0.8166 H   0  0  0  0  0  0  0  0  0  0  0  0
   -1.2450    0.8142   -0.0000 N   0  0  0  0  0  4  0  0  0  0  0  0
   -1.4855    1.0519    0.9408 H   0  0  0  0  0  0  0  0  0  0  0  0
   -1.0953    1.6493   -0.5284 H   0  0  0  0  0  0  0  0  0  0  0  0
   -1.9872    0.2861   -0.4114 H   0  0  0  0  0  0  0  0  0  0  0  0
    3.9448   -3.2738    2.8081 C   0  0  0  0  0  0  0  0  0  0  0  0
    3.7322   -3.7853    1.9487 H   0  0  0  0  0  0  0  0  0  0  0  0
    3.7302   -3.9140    3.5763 H   0  0  0  0  0  0  0  0  0  0  0  0
    5.0145   -3.0649    2.8250 H   0  0  0  0  0  0  0  0  0  0  0  0
    2.9277   -1.7681    2.9268 S   0  0  0  0  0  0  0  0  0  0  0  0
    3.1869   -1.0929    1.2870 C   0  0  0  0  0  0  0  0  0  0  0  0
    2.3514   -1.1969    0.7460 H   0  0  0  0  0  0  0  0  0  0  0  0
    3.4182   -0.1215    1.3572 H   0  0  0  0  0  0  0  0  0  0  0  0
    3.9364   -1.5812    0.8383 H   0  0  0  0  0  0  0  0  0  0  0  0
  1  5  1  0
  5  8  1  0
  1  2  1  0
  1  3  1  0
  1  4  1  0
  5  6  1  0
  5  7  1  0
  8  9  1  0
  8 10  1  0
  8 11  1  0
 12 16  1  0
 16 17  1  0
 12 13  1  0
 12 14  1  0
 12 15  1  0
 17 18  1  0
 17 19  1  0
 17 20  1  0
M  CHG  1   8   1
M  END
>  <PDB_ID>  (1294) 
pdb4ptv

>  <RESIDUE_NAME>  (1294) 
LYS   MET

>  <FRAG_NAME>  (1294) 
ETAM   MSM

>  <FRAG_ATOM_NUM>  (1294) 
fragi: 11  fragj: 9

>  <atom.prop.CHAIN_ID>  (1294) 
A A A A A A A A A A A Z Z Z Z Z Z Z Z Z

>  <atom.prop.IS_HEAVY_ATOM>  (1294) 
1 0 0 0 1 0 0 1 0 0 0 1 0 0 0 1 1 0 0 0

>  <DIFUSE_FUNC_ATOM>  (1294) 
n/a

>  <FINAL_SINGLE_POINT_ENERGY>  (1294) 
0

>  <NONCOV_INTER_ENERGY_QM>  (1294) 
0

>  <FF_Energy>  (1294) 
21.84

>  <QM_Energy>  (1294) 
4.34

>  <source>  (1294) 
ETAM_MSM

>  <Index>  (1294) 
8062

$$$$
ETAM-pdb4pem-D-LYS-797:MSM-pdb4pem-C-MET-16
     RDKit          3D

 20 18  0  0  0  0  0  0  0  0999 V2000
    1.2400    0.8618    0.0000 C   0  0  0  0  0  0  0  0  0  0  0  0
    1.1056    1.6121   -0.6305 H   0  0  0  0  0  0  0  0  0  0  0  0
    2.0139    0.3049   -0.2640 H   0  0  0  0  0  0  0  0  0  0  0  0
    1.4058    1.2586    1.0016 H   0  0  0  0  0  0  0  0  0  0  0  0
    0.0000    0.0000    0.0000 C   0  0  0  0  0  0  0  0  0  0  0  0
   -0.0044   -0.5774   -0.8162 H   0  0  0  0  0  0  0  0  0  0  0  0
   -0.0042   -0.5780    0.8166 H   0  0  0  0  0  0  0  0  0  0  0  0
   -1.2400    0.8441    0.0000 N   0  0  0  0  0  4  0  0  0  0  0  0
   -2.0393    0.2486    0.0453 H   0  0  0  0  0  0  0  0  0  0  0  0
   -1.2225    1.4483    0.7930 H   0  0  0  0  0  0  0  0  0  0  0  0
   -1.2657    1.3846   -0.8380 H   0  0  0  0  0  0  0  0  0  0  0  0
   -4.9942   -1.7167   -1.3905 C   0  0  0  0  0  0  0  0  0  0  0  0
   -5.9627   -1.3909   -1.2998 H   0  0  0  0  0  0  0  0  0  0  0  0
   -5.0571   -2.6486   -1.8159 H   0  0  0  0  0  0  0  0  0  0  0  0
   -4.4689   -1.0548   -2.0790 H   0  0  0  0  0  0  0  0  0  0  0  0
   -4.2047   -1.8192    0.2453 S   0  0  0  0  0  0  0  0  0  0  0  0
   -5.6090   -2.3866    1.2041 C   0  0  0  0  0  0  0  0  0  0  0  0
   -6.2980   -1.6621    1.2506 H   0  0  0  0  0  0  0  0  0  0  0  0
   -6.0066   -3.1962    0.7697 H   0  0  0  0  0  0  0  0  0  0  0  0
   -5.3100   -2.6199    2.1298 H   0  0  0  0  0  0  0  0  0  0  0  0
  1  5  1  0
  5  8  1  0
  1  2  1  0
  1  3  1  0
  1  4  1  0
  5  6  1  0
  5  7  1  0
  8  9  1  0
  8 10  1  0
  8 11  1  0
 12 16  1  0
 16 17  1  0
 12 13  1  0
 12 14  1  0
 12 15  1  0
 17 18  1  0
 17 19  1  0
 17 20  1  0
M  CHG  1   8   1
M  END
>  <PDB_ID>  (1295) 
pdb4pem

>  <RESIDUE_NAME>  (1295) 
LYS   MET

>  <FRAG_NAME>  (1295) 
ETAM   MSM

>  <FRAG_ATOM_NUM>  (1295) 
fragi: 11  fragj: 9

>  <atom.prop.CHAIN_ID>  (1295) 
A A A A A A A A A A A Z Z Z Z Z Z Z Z Z

>  <atom.prop.IS_HEAVY_ATOM>  (1295) 
1 0 0 0 1 0 0 1 0 0 0 1 0 0 0 1 1 0 0 0

>  <DIFUSE_FUNC_ATOM>  (1295) 
n/a

>  <FINAL_SINGLE_POINT_ENERGY>  (1295) 
0

>  <NONCOV_INTER_ENERGY_QM>  (1295) 
0

>  <FF_Energy>  (1295) 
-4.37

>  <QM_Energy>  (1295) 
-10.53

>  <source>  (1295) 
ETAM_MSM

>  <Index>  (1295) 
8068

$$$$
ETAM-pdb3rnm-B-LYS-92:MSM-pdb3rnm-B-MET-89
     RDKit          3D

 20 18  0  0  0  0  0  0  0  0999 V2000
    1.2647    0.8772    0.0000 C   0  0  0  0  0  0  0  0  0  0  0  0
    1.1603    1.5753    0.6951 H   0  0  0  0  0  0  0  0  0  0  0  0
    1.3622    1.2827   -0.8988 H   0  0  0  0  0  0  0  0  0  0  0  0
    2.1556    0.2895    0.2215 H   0  0  0  0  0  0  0  0  0  0  0  0
    0.0000    0.0000    0.0000 C   0  0  0  0  0  0  0  0  0  0  0  0
    0.0190   -0.5864   -0.8159 H   0  0  0  0  0  0  0  0  0  0  0  0
    0.0185   -0.5863    0.8167 H   0  0  0  0  0  0  0  0  0  0  0  0
   -1.2647    0.8014    0.0000 N   0  0  0  0  0  4  0  0  0  0  0  0
   -1.0364    1.7722    0.0458 H   0  0  0  0  0  0  0  0  0  0  0  0
   -1.7723    0.6123   -0.8384 H   0  0  0  0  0  0  0  0  0  0  0  0
   -1.8143    0.5452    0.7922 H   0  0  0  0  0  0  0  0  0  0  0  0
   -1.2987   -0.4490   -4.9198 C   0  0  0  0  0  0  0  0  0  0  0  0
   -0.6916   -0.2905   -5.7202 H   0  0  0  0  0  0  0  0  0  0  0  0
   -2.2551   -0.3873   -5.2603 H   0  0  0  0  0  0  0  0  0  0  0  0
   -1.1253   -1.4579   -4.5452 H   0  0  0  0  0  0  0  0  0  0  0  0
   -0.9949    0.7687   -3.6330 S   0  0  0  0  0  0  0  0  0  0  0  0
   -1.1050    2.2966   -4.5677 C   0  0  0  0  0  0  0  0  0  0  0  0
   -0.3362    2.8910   -4.3285 H   0  0  0  0  0  0  0  0  0  0  0  0
   -1.0745    2.0926   -5.5466 H   0  0  0  0  0  0  0  0  0  0  0  0
   -1.9647    2.7599   -4.3502 H   0  0  0  0  0  0  0  0  0  0  0  0
  1  5  1  0
  5  8  1  0
  1  2  1  0
  1  3  1  0
  1  4  1  0
  5  6  1  0
  5  7  1  0
  8  9  1  0
  8 10  1  0
  8 11  1  0
 12 16  1  0
 16 17  1  0
 12 13  1  0
 12 14  1  0
 12 15  1  0
 17 18  1  0
 17 19  1  0
 17 20  1  0
M  CHG  1   8   1
M  END
>  <PDB_ID>  (1296) 
pdb3rnm

>  <RESIDUE_NAME>  (1296) 
LYS   MET

>  <FRAG_NAME>  (1296) 
ETAM   MSM

>  <FRAG_ATOM_NUM>  (1296) 
fragi: 11  fragj: 9

>  <atom.prop.CHAIN_ID>  (1296) 
A A A A A A A A A A A Z Z Z Z Z Z Z Z Z

>  <atom.prop.IS_HEAVY_ATOM>  (1296) 
1 0 0 0 1 0 0 1 0 0 0 1 0 0 0 1 1 0 0 0

>  <DIFUSE_FUNC_ATOM>  (1296) 
n/a

>  <FINAL_SINGLE_POINT_ENERGY>  (1296) 
0

>  <NONCOV_INTER_ENERGY_QM>  (1296) 
0

>  <FF_Energy>  (1296) 
-5.62

>  <QM_Energy>  (1296) 
-13.75

>  <source>  (1296) 
ETAM_MSM

>  <Index>  (1296) 
8070

$$$$
ETAM-pdb4py3-F-LYS-205:MSM-pdb4py3-F-MET-202
     RDKit          3D

 20 18  0  0  0  0  0  0  0  0999 V2000
    1.2320    0.8726   -0.0000 C   0  0  0  0  0  0  0  0  0  0  0  0
    1.2156    1.4513    0.8171 H   0  0  0  0  0  0  0  0  0  0  0  0
    1.2158    1.4514   -0.8158 H   0  0  0  0  0  0  0  0  0  0  0  0
    2.1566    0.2953    0.0006 H   0  0  0  0  0  0  0  0  0  0  0  0
    0.0000    0.0000    0.0000 C   0  0  0  0  0  0  0  0  0  0  0  0
    0.0069   -0.5788   -0.8161 H   0  0  0  0  0  0  0  0  0  0  0  0
    0.0064   -0.5797    0.8162 H   0  0  0  0  0  0  0  0  0  0  0  0
   -1.2320    0.8281   -0.0000 N   0  0  0  0  0  4  0  0  0  0  0  0
   -1.2131    1.4536    0.7798 H   0  0  0  0  0  0  0  0  0  0  0  0
   -1.2791    1.3548   -0.8487 H   0  0  0  0  0  0  0  0  0  0  0  0
   -2.0335    0.2336    0.0686 H   0  0  0  0  0  0  0  0  0  0  0  0
   -1.4486    0.0866    2.9917 C   0  0  0  0  0  0  0  0  0  0  0  0
   -1.3587    0.5599    2.0964 H   0  0  0  0  0  0  0  0  0  0  0  0
   -1.7652   -0.8585    2.7941 H   0  0  0  0  0  0  0  0  0  0  0  0
   -0.4692    0.0410    3.4678 H   0  0  0  0  0  0  0  0  0  0  0  0
   -2.6451    0.9485    4.0489 S   0  0  0  0  0  0  0  0  0  0  0  0
   -1.8693    2.5636    4.1521 C   0  0  0  0  0  0  0  0  0  0  0  0
   -0.9471    2.4675    4.5269 H   0  0  0  0  0  0  0  0  0  0  0  0
   -1.8168    2.9685    3.2384 H   0  0  0  0  0  0  0  0  0  0  0  0
   -2.4109    3.1566    4.7481 H   0  0  0  0  0  0  0  0  0  0  0  0
  1  5  1  0
  5  8  1  0
  1  2  1  0
  1  3  1  0
  1  4  1  0
  5  6  1  0
  5  7  1  0
  8  9  1  0
  8 10  1  0
  8 11  1  0
 12 16  1  0
 16 17  1  0
 12 13  1  0
 12 14  1  0
 12 15  1  0
 17 18  1  0
 17 19  1  0
 17 20  1  0
M  CHG  1   8   1
M  END
>  <PDB_ID>  (1297) 
pdb4py3

>  <RESIDUE_NAME>  (1297) 
LYS   MET

>  <FRAG_NAME>  (1297) 
ETAM   MSM

>  <FRAG_ATOM_NUM>  (1297) 
fragi: 11  fragj: 9

>  <atom.prop.CHAIN_ID>  (1297) 
A A A A A A A A A A A Z Z Z Z Z Z Z Z Z

>  <atom.prop.IS_HEAVY_ATOM>  (1297) 
1 0 0 0 1 0 0 1 0 0 0 1 0 0 0 1 1 0 0 0

>  <DIFUSE_FUNC_ATOM>  (1297) 
n/a

>  <FINAL_SINGLE_POINT_ENERGY>  (1297) 
0

>  <NONCOV_INTER_ENERGY_QM>  (1297) 
0

>  <FF_Energy>  (1297) 
11.54

>  <QM_Energy>  (1297) 
3.69

>  <source>  (1297) 
ETAM_MSM

>  <Index>  (1297) 
8081

$$$$
ETAM-pdb4py3-H-LYS-205:MSM-pdb4py3-H-MET-202
     RDKit          3D

 20 18  0  0  0  0  0  0  0  0999 V2000
    1.2321    0.8727    0.0000 C   0  0  0  0  0  0  0  0  0  0  0  0
    1.2149    1.4520    0.8168 H   0  0  0  0  0  0  0  0  0  0  0  0
    1.2151    1.4529   -0.8169 H   0  0  0  0  0  0  0  0  0  0  0  0
    2.1570    0.2959    0.0006 H   0  0  0  0  0  0  0  0  0  0  0  0
    0.0000    0.0000    0.0000 C   0  0  0  0  0  0  0  0  0  0  0  0
    0.0067   -0.5792   -0.8165 H   0  0  0  0  0  0  0  0  0  0  0  0
    0.0072   -0.5799    0.8159 H   0  0  0  0  0  0  0  0  0  0  0  0
   -1.2321    0.8280    0.0000 N   0  0  0  0  0  4  0  0  0  0  0  0
   -0.9837    1.7949   -0.0570 H   0  0  0  0  0  0  0  0  0  0  0  0
   -1.7989    0.5827   -0.7865 H   0  0  0  0  0  0  0  0  0  0  0  0
   -1.7430    0.6640    0.8442 H   0  0  0  0  0  0  0  0  0  0  0  0
   -1.4291    0.0713    3.0122 C   0  0  0  0  0  0  0  0  0  0  0  0
   -1.3285    0.5415    2.1095 H   0  0  0  0  0  0  0  0  0  0  0  0
   -1.7252   -0.8849    2.8003 H   0  0  0  0  0  0  0  0  0  0  0  0
   -0.4519    0.0337    3.4937 H   0  0  0  0  0  0  0  0  0  0  0  0
   -2.6528    0.9071    4.0362 S   0  0  0  0  0  0  0  0  0  0  0  0
   -3.6085   -0.5058    4.5650 C   0  0  0  0  0  0  0  0  0  0  0  0
   -2.9954   -1.2186    4.9112 H   0  0  0  0  0  0  0  0  0  0  0  0
   -4.2412   -0.2336    5.2927 H   0  0  0  0  0  0  0  0  0  0  0  0
   -4.1325   -0.8688    3.7917 H   0  0  0  0  0  0  0  0  0  0  0  0
  1  5  1  0
  5  8  1  0
  1  2  1  0
  1  3  1  0
  1  4  1  0
  5  6  1  0
  5  7  1  0
  8  9  1  0
  8 10  1  0
  8 11  1  0
 12 16  1  0
 16 17  1  0
 12 13  1  0
 12 14  1  0
 12 15  1  0
 17 18  1  0
 17 19  1  0
 17 20  1  0
M  CHG  1   8   1
M  END
>  <PDB_ID>  (1298) 
pdb4py3

>  <RESIDUE_NAME>  (1298) 
LYS   MET

>  <FRAG_NAME>  (1298) 
ETAM   MSM

>  <FRAG_ATOM_NUM>  (1298) 
fragi: 11  fragj: 9

>  <atom.prop.CHAIN_ID>  (1298) 
A A A A A A A A A A A Z Z Z Z Z Z Z Z Z

>  <atom.prop.IS_HEAVY_ATOM>  (1298) 
1 0 0 0 1 0 0 1 0 0 0 1 0 0 0 1 1 0 0 0

>  <DIFUSE_FUNC_ATOM>  (1298) 
n/a

>  <FINAL_SINGLE_POINT_ENERGY>  (1298) 
0

>  <NONCOV_INTER_ENERGY_QM>  (1298) 
0

>  <FF_Energy>  (1298) 
10.43

>  <QM_Energy>  (1298) 
4.02

>  <source>  (1298) 
ETAM_MSM

>  <Index>  (1298) 
8082

$$$$
ETAM-pdb4py3-J-LYS-205:MSM-pdb4py3-J-MET-202
     RDKit          3D

 20 18  0  0  0  0  0  0  0  0999 V2000
    1.2323    0.8729   -0.0000 C   0  0  0  0  0  0  0  0  0  0  0  0
    1.2158    1.4527    0.8167 H   0  0  0  0  0  0  0  0  0  0  0  0
    1.2156    1.4523   -0.8168 H   0  0  0  0  0  0  0  0  0  0  0  0
    2.1567    0.2952    0.0002 H   0  0  0  0  0  0  0  0  0  0  0  0
    0.0000    0.0000    0.0000 C   0  0  0  0  0  0  0  0  0  0  0  0
    0.0070   -0.5783   -0.8160 H   0  0  0  0  0  0  0  0  0  0  0  0
    0.0067   -0.5785    0.8168 H   0  0  0  0  0  0  0  0  0  0  0  0
   -1.2323    0.8291   -0.0000 N   0  0  0  0  0  4  0  0  0  0  0  0
   -1.8635    0.4874    0.6966 H   0  0  0  0  0  0  0  0  0  0  0  0
   -0.9936    1.7793    0.2033 H   0  0  0  0  0  0  0  0  0  0  0  0
   -1.6677    0.7798   -0.8990 H   0  0  0  0  0  0  0  0  0  0  0  0
   -1.4189    0.1193    3.0513 C   0  0  0  0  0  0  0  0  0  0  0  0
   -1.3285    0.5922    2.1526 H   0  0  0  0  0  0  0  0  0  0  0  0
   -1.7266   -0.8303    2.8481 H   0  0  0  0  0  0  0  0  0  0  0  0
   -0.4371    0.0755    3.5227 H   0  0  0  0  0  0  0  0  0  0  0  0
   -2.6188    0.9689    4.1026 S   0  0  0  0  0  0  0  0  0  0  0  0
   -3.5863   -0.4378    4.6350 C   0  0  0  0  0  0  0  0  0  0  0  0
   -3.2609   -1.2649    4.1735 H   0  0  0  0  0  0  0  0  0  0  0  0
   -3.4945   -0.5543    5.6257 H   0  0  0  0  0  0  0  0  0  0  0  0
   -4.5501   -0.2897    4.4074 H   0  0  0  0  0  0  0  0  0  0  0  0
  1  5  1  0
  5  8  1  0
  1  2  1  0
  1  3  1  0
  1  4  1  0
  5  6  1  0
  5  7  1  0
  8  9  1  0
  8 10  1  0
  8 11  1  0
 12 16  1  0
 16 17  1  0
 12 13  1  0
 12 14  1  0
 12 15  1  0
 17 18  1  0
 17 19  1  0
 17 20  1  0
M  CHG  1   8   1
M  END
>  <PDB_ID>  (1299) 
pdb4py3

>  <RESIDUE_NAME>  (1299) 
LYS   MET

>  <FRAG_NAME>  (1299) 
ETAM   MSM

>  <FRAG_ATOM_NUM>  (1299) 
fragi: 11  fragj: 9

>  <atom.prop.CHAIN_ID>  (1299) 
A A A A A A A A A A A Z Z Z Z Z Z Z Z Z

>  <atom.prop.IS_HEAVY_ATOM>  (1299) 
1 0 0 0 1 0 0 1 0 0 0 1 0 0 0 1 1 0 0 0

>  <DIFUSE_FUNC_ATOM>  (1299) 
n/a

>  <FINAL_SINGLE_POINT_ENERGY>  (1299) 
0

>  <NONCOV_INTER_ENERGY_QM>  (1299) 
0

>  <FF_Energy>  (1299) 
8.13

>  <QM_Energy>  (1299) 
1.57

>  <source>  (1299) 
ETAM_MSM

>  <Index>  (1299) 
8083

$$$$
ETAM-pdb3rnm-C-LYS-92:MSM-pdb3rnm-C-MET-89
     RDKit          3D

 20 18  0  0  0  0  0  0  0  0999 V2000
    1.2530    0.8616   -0.0000 C   0  0  0  0  0  0  0  0  0  0  0  0
    1.0951    1.6472    0.5897 H   0  0  0  0  0  0  0  0  0  0  0  0
    1.4295    1.1598   -0.9323 H   0  0  0  0  0  0  0  0  0  0  0  0
    2.1157    0.3064    0.3682 H   0  0  0  0  0  0  0  0  0  0  0  0
    0.0000    0.0000    0.0000 C   0  0  0  0  0  0  0  0  0  0  0  0
    0.0065   -0.5867   -0.8159 H   0  0  0  0  0  0  0  0  0  0  0  0
    0.0060   -0.5859    0.8164 H   0  0  0  0  0  0  0  0  0  0  0  0
   -1.2530    0.8176    0.0000 N   0  0  0  0  0  4  0  0  0  0  0  0
   -1.9705    0.3178    0.4808 H   0  0  0  0  0  0  0  0  0  0  0  0
   -1.0776    1.6851    0.4623 H   0  0  0  0  0  0  0  0  0  0  0  0
   -1.5331    0.9879   -0.9428 H   0  0  0  0  0  0  0  0  0  0  0  0
   -1.5291   -0.7271   -4.5126 C   0  0  0  0  0  0  0  0  0  0  0  0
   -0.9919   -0.7286   -5.3809 H   0  0  0  0  0  0  0  0  0  0  0  0
   -2.5104   -0.6551   -4.7854 H   0  0  0  0  0  0  0  0  0  0  0  0
   -1.3799   -1.6858   -4.0160 H   0  0  0  0  0  0  0  0  0  0  0  0
   -1.0501    0.6631   -3.4621 S   0  0  0  0  0  0  0  0  0  0  0  0
   -1.4142    2.0685   -4.5060 C   0  0  0  0  0  0  0  0  0  0  0  0
   -1.7337    2.8331   -3.9433 H   0  0  0  0  0  0  0  0  0  0  0  0
   -0.5877    2.3445   -5.0000 H   0  0  0  0  0  0  0  0  0  0  0  0
   -2.1275    1.8232   -5.1657 H   0  0  0  0  0  0  0  0  0  0  0  0
  1  5  1  0
  5  8  1  0
  1  2  1  0
  1  3  1  0
  1  4  1  0
  5  6  1  0
  5  7  1  0
  8  9  1  0
  8 10  1  0
  8 11  1  0
 12 16  1  0
 16 17  1  0
 12 13  1  0
 12 14  1  0
 12 15  1  0
 17 18  1  0
 17 19  1  0
 17 20  1  0
M  CHG  1   8   1
M  END
>  <PDB_ID>  (1300) 
pdb3rnm

>  <RESIDUE_NAME>  (1300) 
LYS   MET

>  <FRAG_NAME>  (1300) 
ETAM   MSM

>  <FRAG_ATOM_NUM>  (1300) 
fragi: 11  fragj: 9

>  <atom.prop.CHAIN_ID>  (1300) 
A A A A A A A A A A A Z Z Z Z Z Z Z Z Z

>  <atom.prop.IS_HEAVY_ATOM>  (1300) 
1 0 0 0 1 0 0 1 0 0 0 1 0 0 0 1 1 0 0 0

>  <DIFUSE_FUNC_ATOM>  (1300) 
n/a

>  <FINAL_SINGLE_POINT_ENERGY>  (1300) 
0

>  <NONCOV_INTER_ENERGY_QM>  (1300) 
0

>  <FF_Energy>  (1300) 
-5.94

>  <QM_Energy>  (1300) 
-16.25

>  <source>  (1300) 
ETAM_MSM

>  <Index>  (1300) 
8109

$$$$
ETAM-pdb3rnm-D-LYS-92:MSM-pdb3rnm-D-MET-89
     RDKit          3D

 20 18  0  0  0  0  0  0  0  0999 V2000
    1.2418    0.8689    0.0000 C   0  0  0  0  0  0  0  0  0  0  0  0
    1.1059    1.6113    0.6506 H   0  0  0  0  0  0  0  0  0  0  0  0
    1.3667    1.2382   -0.9173 H   0  0  0  0  0  0  0  0  0  0  0  0
    2.1256    0.2975    0.2836 H   0  0  0  0  0  0  0  0  0  0  0  0
    0.0000    0.0000    0.0000 C   0  0  0  0  0  0  0  0  0  0  0  0
    0.0078   -0.5818   -0.8160 H   0  0  0  0  0  0  0  0  0  0  0  0
    0.0074   -0.5820    0.8164 H   0  0  0  0  0  0  0  0  0  0  0  0
   -1.2418    0.8221    0.0000 N   0  0  0  0  0  4  0  0  0  0  0  0
   -1.0613    1.6941   -0.4544 H   0  0  0  0  0  0  0  0  0  0  0  0
   -1.9632    0.3328   -0.4882 H   0  0  0  0  0  0  0  0  0  0  0  0
   -1.5288    0.9883    0.9428 H   0  0  0  0  0  0  0  0  0  0  0  0
   -1.8256   -1.4113   -4.3936 C   0  0  0  0  0  0  0  0  0  0  0  0
   -1.2907   -1.5222   -5.2535 H   0  0  0  0  0  0  0  0  0  0  0  0
   -2.8080   -1.4070   -4.6625 H   0  0  0  0  0  0  0  0  0  0  0  0
   -1.6449   -2.2819   -3.7632 H   0  0  0  0  0  0  0  0  0  0  0  0
   -1.3812    0.1054   -3.5459 S   0  0  0  0  0  0  0  0  0  0  0  0
   -1.6028    1.3178   -4.8407 C   0  0  0  0  0  0  0  0  0  0  0  0
   -2.0099    2.1491   -4.4587 H   0  0  0  0  0  0  0  0  0  0  0  0
   -0.7158    1.5422   -5.2488 H   0  0  0  0  0  0  0  0  0  0  0  0
   -2.2077    0.9482   -5.5486 H   0  0  0  0  0  0  0  0  0  0  0  0
  1  5  1  0
  5  8  1  0
  1  2  1  0
  1  3  1  0
  1  4  1  0
  5  6  1  0
  5  7  1  0
  8  9  1  0
  8 10  1  0
  8 11  1  0
 12 16  1  0
 16 17  1  0
 12 13  1  0
 12 14  1  0
 12 15  1  0
 17 18  1  0
 17 19  1  0
 17 20  1  0
M  CHG  1   8   1
M  END
>  <PDB_ID>  (1301) 
pdb3rnm

>  <RESIDUE_NAME>  (1301) 
LYS   MET

>  <FRAG_NAME>  (1301) 
ETAM   MSM

>  <FRAG_ATOM_NUM>  (1301) 
fragi: 11  fragj: 9

>  <atom.prop.CHAIN_ID>  (1301) 
A A A A A A A A A A A Z Z Z Z Z Z Z Z Z

>  <atom.prop.IS_HEAVY_ATOM>  (1301) 
1 0 0 0 1 0 0 1 0 0 0 1 0 0 0 1 1 0 0 0

>  <DIFUSE_FUNC_ATOM>  (1301) 
n/a

>  <FINAL_SINGLE_POINT_ENERGY>  (1301) 
0

>  <NONCOV_INTER_ENERGY_QM>  (1301) 
0

>  <FF_Energy>  (1301) 
-5.47

>  <QM_Energy>  (1301) 
-13.0

>  <source>  (1301) 
ETAM_MSM

>  <Index>  (1301) 
8110

$$$$
ETAM-pdb3s43-B-LYS-120:MSM-pdb3s43-B-MET-136
     RDKit          3D

 20 18  0  0  0  0  0  0  0  0999 V2000
    1.2005    0.9336   -0.0000 C   0  0  0  0  0  0  0  0  0  0  0  0
    2.0303    0.3840    0.0787 H   0  0  0  0  0  0  0  0  0  0  0  0
    1.1260    1.5458    0.7853 H   0  0  0  0  0  0  0  0  0  0  0  0
    1.2607    1.5320   -0.9091 H   0  0  0  0  0  0  0  0  0  0  0  0
    0.0000    0.0000    0.0000 C   0  0  0  0  0  0  0  0  0  0  0  0
    0.0203   -0.5480   -0.8160 H   0  0  0  0  0  0  0  0  0  0  0  0
    0.0191   -0.5483    0.8166 H   0  0  0  0  0  0  0  0  0  0  0  0
   -1.2005    0.8585    0.0000 N   0  0  0  0  0  4  0  0  0  0  0  0
   -1.9547    0.3848    0.4590 H   0  0  0  0  0  0  0  0  0  0  0  0
   -1.0050    1.7129    0.4839 H   0  0  0  0  0  0  0  0  0  0  0  0
   -1.4669    1.0665   -0.9428 H   0  0  0  0  0  0  0  0  0  0  0  0
   -2.1466   -2.2578    3.6300 C   0  0  0  0  0  0  0  0  0  0  0  0
   -1.7211   -1.9288    4.5177 H   0  0  0  0  0  0  0  0  0  0  0  0
   -2.5023   -3.2046    3.8639 H   0  0  0  0  0  0  0  0  0  0  0  0
   -2.9928   -1.6145    3.3890 H   0  0  0  0  0  0  0  0  0  0  0  0
   -0.8689   -2.3785    2.3377 S   0  0  0  0  0  0  0  0  0  0  0  0
   -1.8035   -3.2151    1.0679 C   0  0  0  0  0  0  0  0  0  0  0  0
   -1.7791   -4.2041    1.2253 H   0  0  0  0  0  0  0  0  0  0  0  0
   -2.7558   -2.9023    1.0861 H   0  0  0  0  0  0  0  0  0  0  0  0
   -1.4093   -3.0148    0.1690 H   0  0  0  0  0  0  0  0  0  0  0  0
  1  5  1  0
  5  8  1  0
  1  2  1  0
  1  3  1  0
  1  4  1  0
  5  6  1  0
  5  7  1  0
  8  9  1  0
  8 10  1  0
  8 11  1  0
 12 16  1  0
 16 17  1  0
 12 13  1  0
 12 14  1  0
 12 15  1  0
 17 18  1  0
 17 19  1  0
 17 20  1  0
M  CHG  1   8   1
M  END
>  <PDB_ID>  (1302) 
pdb3s43

>  <RESIDUE_NAME>  (1302) 
LYS   MET

>  <FRAG_NAME>  (1302) 
ETAM   MSM

>  <FRAG_ATOM_NUM>  (1302) 
fragi: 11  fragj: 9

>  <atom.prop.CHAIN_ID>  (1302) 
A A A A A A A A A A A Z Z Z Z Z Z Z Z Z

>  <atom.prop.IS_HEAVY_ATOM>  (1302) 
1 0 0 0 1 0 0 1 0 0 0 1 0 0 0 1 1 0 0 0

>  <DIFUSE_FUNC_ATOM>  (1302) 
n/a

>  <FINAL_SINGLE_POINT_ENERGY>  (1302) 
0

>  <NONCOV_INTER_ENERGY_QM>  (1302) 
0

>  <FF_Energy>  (1302) 
-1.73

>  <QM_Energy>  (1302) 
-7.98

>  <source>  (1302) 
ETAM_MSM

>  <Index>  (1302) 
8117

$$$$
ETAM-pdb3s45-A-LYS-45:MSM-pdb3s45-A-MET-76
     RDKit          3D

 20 18  0  0  0  0  0  0  0  0999 V2000
    1.2472    0.8922   -0.0000 C   0  0  0  0  0  0  0  0  0  0  0  0
    1.2184    1.4689    0.7946 H   0  0  0  0  0  0  0  0  0  0  0  0
    1.2623    1.4068   -0.8360 H   0  0  0  0  0  0  0  0  0  0  0  0
    2.1333    0.2593    0.0486 H   0  0  0  0  0  0  0  0  0  0  0  0
    0.0000    0.0000    0.0000 C   0  0  0  0  0  0  0  0  0  0  0  0
    0.0204   -0.5772   -0.8158 H   0  0  0  0  0  0  0  0  0  0  0  0
    0.0197   -0.5769    0.8165 H   0  0  0  0  0  0  0  0  0  0  0  0
   -1.2472    0.8142   -0.0000 N   0  0  0  0  0  4  0  0  0  0  0  0
   -1.0933    1.6562   -0.5156 H   0  0  0  0  0  0  0  0  0  0  0  0
   -1.9845    0.2902   -0.4259 H   0  0  0  0  0  0  0  0  0  0  0  0
   -1.4965    1.0390    0.9416 H   0  0  0  0  0  0  0  0  0  0  0  0
    1.0018    2.3380   -4.9809 C   0  0  0  0  0  0  0  0  0  0  0  0
    1.6385    2.8302   -4.3533 H   0  0  0  0  0  0  0  0  0  0  0  0
    0.3238    3.0323   -5.3007 H   0  0  0  0  0  0  0  0  0  0  0  0
    1.5677    1.9798   -5.8409 H   0  0  0  0  0  0  0  0  0  0  0  0
    0.1723    0.9873   -4.1171 S   0  0  0  0  0  0  0  0  0  0  0  0
   -0.4086    1.8895   -2.6692 C   0  0  0  0  0  0  0  0  0  0  0  0
   -0.6889    2.8084   -2.9435 H   0  0  0  0  0  0  0  0  0  0  0  0
   -1.1864    1.4061   -2.2689 H   0  0  0  0  0  0  0  0  0  0  0  0
    0.3300    1.9498   -1.9992 H   0  0  0  0  0  0  0  0  0  0  0  0
  1  5  1  0
  5  8  1  0
  1  2  1  0
  1  3  1  0
  1  4  1  0
  5  6  1  0
  5  7  1  0
  8  9  1  0
  8 10  1  0
  8 11  1  0
 12 16  1  0
 16 17  1  0
 12 13  1  0
 12 14  1  0
 12 15  1  0
 17 18  1  0
 17 19  1  0
 17 20  1  0
M  CHG  1   8   1
M  END
>  <PDB_ID>  (1303) 
pdb3s45

>  <RESIDUE_NAME>  (1303) 
LYS   MET

>  <FRAG_NAME>  (1303) 
ETAM   MSM

>  <FRAG_ATOM_NUM>  (1303) 
fragi: 11  fragj: 9

>  <atom.prop.CHAIN_ID>  (1303) 
A A A A A A A A A A A Z Z Z Z Z Z Z Z Z

>  <atom.prop.IS_HEAVY_ATOM>  (1303) 
1 0 0 0 1 0 0 1 0 0 0 1 0 0 0 1 1 0 0 0

>  <DIFUSE_FUNC_ATOM>  (1303) 
n/a

>  <FINAL_SINGLE_POINT_ENERGY>  (1303) 
0

>  <NONCOV_INTER_ENERGY_QM>  (1303) 
0

>  <FF_Energy>  (1303) 
18.82

>  <QM_Energy>  (1303) 
3.55

>  <source>  (1303) 
ETAM_MSM

>  <Index>  (1303) 
8121

$$$$
ETAM-pdb4pem-H-LYS-797:MSM-pdb4pem-G-MET-16
     RDKit          3D

 20 18  0  0  0  0  0  0  0  0999 V2000
    1.2355    0.8787   -0.0000 C   0  0  0  0  0  0  0  0  0  0  0  0
    1.0905    1.6225   -0.6403 H   0  0  0  0  0  0  0  0  0  0  0  0
    2.0125    0.3254   -0.2715 H   0  0  0  0  0  0  0  0  0  0  0  0
    1.4053    1.2840    0.9975 H   0  0  0  0  0  0  0  0  0  0  0  0
    0.0000    0.0000    0.0000 C   0  0  0  0  0  0  0  0  0  0  0  0
    0.0010   -0.5704   -0.8166 H   0  0  0  0  0  0  0  0  0  0  0  0
    0.0004   -0.5704    0.8161 H   0  0  0  0  0  0  0  0  0  0  0  0
   -1.2355    0.8493    0.0000 N   0  0  0  0  0  4  0  0  0  0  0  0
   -1.8618    0.5130    0.7000 H   0  0  0  0  0  0  0  0  0  0  0  0
   -0.9819    1.7942    0.1968 H   0  0  0  0  0  0  0  0  0  0  0  0
   -1.6685    0.7944   -0.8974 H   0  0  0  0  0  0  0  0  0  0  0  0
   -4.9340   -1.6947   -1.3949 C   0  0  0  0  0  0  0  0  0  0  0  0
   -5.9125   -1.3827   -1.3148 H   0  0  0  0  0  0  0  0  0  0  0  0
   -4.9907   -2.6292   -1.8252 H   0  0  0  0  0  0  0  0  0  0  0  0
   -4.4184   -1.0287   -2.0868 H   0  0  0  0  0  0  0  0  0  0  0  0
   -4.1582   -1.7851    0.2236 S   0  0  0  0  0  0  0  0  0  0  0  0
   -5.5475   -2.3996    1.1914 C   0  0  0  0  0  0  0  0  0  0  0  0
   -6.2150   -2.8236    0.5802 H   0  0  0  0  0  0  0  0  0  0  0  0
   -5.2186   -3.0765    1.8497 H   0  0  0  0  0  0  0  0  0  0  0  0
   -5.9747   -1.6376    1.6780 H   0  0  0  0  0  0  0  0  0  0  0  0
  1  5  1  0
  5  8  1  0
  1  2  1  0
  1  3  1  0
  1  4  1  0
  5  6  1  0
  5  7  1  0
  8  9  1  0
  8 10  1  0
  8 11  1  0
 12 16  1  0
 16 17  1  0
 12 13  1  0
 12 14  1  0
 12 15  1  0
 17 18  1  0
 17 19  1  0
 17 20  1  0
M  CHG  1   8   1
M  END
>  <PDB_ID>  (1304) 
pdb4pem

>  <RESIDUE_NAME>  (1304) 
LYS   MET

>  <FRAG_NAME>  (1304) 
ETAM   MSM

>  <FRAG_ATOM_NUM>  (1304) 
fragi: 11  fragj: 9

>  <atom.prop.CHAIN_ID>  (1304) 
A A A A A A A A A A A Z Z Z Z Z Z Z Z Z

>  <atom.prop.IS_HEAVY_ATOM>  (1304) 
1 0 0 0 1 0 0 1 0 0 0 1 0 0 0 1 1 0 0 0

>  <DIFUSE_FUNC_ATOM>  (1304) 
n/a

>  <FINAL_SINGLE_POINT_ENERGY>  (1304) 
0

>  <NONCOV_INTER_ENERGY_QM>  (1304) 
0

>  <FF_Energy>  (1304) 
-4.31

>  <QM_Energy>  (1304) 
-9.81

>  <source>  (1304) 
ETAM_MSM

>  <Index>  (1304) 
8131

$$$$
ETAM-pdb3s9a-A-LYS-67:MSM-pdb3s9a-A-MET-70
     RDKit          3D

 20 18  0  0  0  0  0  0  0  0999 V2000
    1.2549    0.8624    0.0000 C   0  0  0  0  0  0  0  0  0  0  0  0
    1.2311    1.4573   -0.7989 H   0  0  0  0  0  0  0  0  0  0  0  0
    2.0498    0.2644   -0.0424 H   0  0  0  0  0  0  0  0  0  0  0  0
    1.3241    1.4793    0.8960 H   0  0  0  0  0  0  0  0  0  0  0  0
    0.0000    0.0000    0.0000 C   0  0  0  0  0  0  0  0  0  0  0  0
    0.0106   -0.5891   -0.8165 H   0  0  0  0  0  0  0  0  0  0  0  0
    0.0105   -0.5895    0.8161 H   0  0  0  0  0  0  0  0  0  0  0  0
   -1.2549    0.8079   -0.0000 N   0  0  0  0  0  4  0  0  0  0  0  0
   -1.8713    0.4599    0.7048 H   0  0  0  0  0  0  0  0  0  0  0  0
   -1.0318    1.7630    0.1908 H   0  0  0  0  0  0  0  0  0  0  0  0
   -1.6926    0.7372   -0.8949 H   0  0  0  0  0  0  0  0  0  0  0  0
   -0.0378    5.5551   -0.0572 C   0  0  0  0  0  0  0  0  0  0  0  0
    0.0236    6.5283    0.2823 H   0  0  0  0  0  0  0  0  0  0  0  0
   -0.4378    5.6382   -1.0060 H   0  0  0  0  0  0  0  0  0  0  0  0
    0.9748    5.1616   -0.1471 H   0  0  0  0  0  0  0  0  0  0  0  0
   -1.1394    4.5790    1.0115 S   0  0  0  0  0  0  0  0  0  0  0  0
   -0.5009    4.9918    2.5982 C   0  0  0  0  0  0  0  0  0  0  0  0
   -1.1858    4.8053    3.3119 H   0  0  0  0  0  0  0  0  0  0  0  0
    0.3236    4.4493    2.7978 H   0  0  0  0  0  0  0  0  0  0  0  0
   -0.2574    5.9674    2.6363 H   0  0  0  0  0  0  0  0  0  0  0  0
  1  5  1  0
  5  8  1  0
  1  2  1  0
  1  3  1  0
  1  4  1  0
  5  6  1  0
  5  7  1  0
  8  9  1  0
  8 10  1  0
  8 11  1  0
 12 16  1  0
 16 17  1  0
 12 13  1  0
 12 14  1  0
 12 15  1  0
 17 18  1  0
 17 19  1  0
 17 20  1  0
M  CHG  1   8   1
M  END
>  <PDB_ID>  (1305) 
pdb3s9a

>  <RESIDUE_NAME>  (1305) 
LYS   MET

>  <FRAG_NAME>  (1305) 
ETAM   MSM

>  <FRAG_ATOM_NUM>  (1305) 
fragi: 11  fragj: 9

>  <atom.prop.CHAIN_ID>  (1305) 
A A A A A A A A A A A Z Z Z Z Z Z Z Z Z

>  <atom.prop.IS_HEAVY_ATOM>  (1305) 
1 0 0 0 1 0 0 1 0 0 0 1 0 0 0 1 1 0 0 0

>  <DIFUSE_FUNC_ATOM>  (1305) 
n/a

>  <FINAL_SINGLE_POINT_ENERGY>  (1305) 
0

>  <NONCOV_INTER_ENERGY_QM>  (1305) 
0

>  <FF_Energy>  (1305) 
-4.8

>  <QM_Energy>  (1305) 
-12.42

>  <source>  (1305) 
ETAM_MSM

>  <Index>  (1305) 
8146

$$$$
ETAM-pdb4py3-G-LYS-205:MSM-pdb4py3-G-MET-202
     RDKit          3D

 20 18  0  0  0  0  0  0  0  0999 V2000
    1.2317    0.8721   -0.0000 C   0  0  0  0  0  0  0  0  0  0  0  0
    1.2158    1.4511    0.8171 H   0  0  0  0  0  0  0  0  0  0  0  0
    1.2153    1.4514   -0.8162 H   0  0  0  0  0  0  0  0  0  0  0  0
    2.1564    0.2951    0.0003 H   0  0  0  0  0  0  0  0  0  0  0  0
    0.0000    0.0000    0.0000 C   0  0  0  0  0  0  0  0  0  0  0  0
    0.0064   -0.5787   -0.8169 H   0  0  0  0  0  0  0  0  0  0  0  0
    0.0064   -0.5799    0.8156 H   0  0  0  0  0  0  0  0  0  0  0  0
   -1.2317    0.8278    0.0000 N   0  0  0  0  0  4  0  0  0  0  0  0
   -2.0320    0.2364    0.1002 H   0  0  0  0  0  0  0  0  0  0  0  0
   -1.1987    1.4756    0.7612 H   0  0  0  0  0  0  0  0  0  0  0  0
   -1.2961    1.3308   -0.8622 H   0  0  0  0  0  0  0  0  0  0  0  0
   -1.2841   -0.5601    4.3877 C   0  0  0  0  0  0  0  0  0  0  0  0
   -0.9485   -1.1612    5.1158 H   0  0  0  0  0  0  0  0  0  0  0  0
   -1.8967    0.1260    4.7866 H   0  0  0  0  0  0  0  0  0  0  0  0
   -0.4456   -0.0707    3.8922 H   0  0  0  0  0  0  0  0  0  0  0  0
   -2.1797   -1.5407    3.1327 S   0  0  0  0  0  0  0  0  0  0  0  0
   -2.6406   -0.2311    1.9931 C   0  0  0  0  0  0  0  0  0  0  0  0
   -3.6333   -0.1065    2.0122 H   0  0  0  0  0  0  0  0  0  0  0  0
   -2.1924    0.6209    2.2657 H   0  0  0  0  0  0  0  0  0  0  0  0
   -2.3535   -0.4780    1.0674 H   0  0  0  0  0  0  0  0  0  0  0  0
  1  5  1  0
  5  8  1  0
  1  2  1  0
  1  3  1  0
  1  4  1  0
  5  6  1  0
  5  7  1  0
  8  9  1  0
  8 10  1  0
  8 11  1  0
 12 16  1  0
 16 17  1  0
 12 13  1  0
 12 14  1  0
 12 15  1  0
 17 18  1  0
 17 19  1  0
 17 20  1  0
M  CHG  1   8   1
M  END
>  <PDB_ID>  (1306) 
pdb4py3

>  <RESIDUE_NAME>  (1306) 
LYS   MET

>  <FRAG_NAME>  (1306) 
ETAM   MSM

>  <FRAG_ATOM_NUM>  (1306) 
fragi: 11  fragj: 9

>  <atom.prop.CHAIN_ID>  (1306) 
A A A A A A A A A A A Z Z Z Z Z Z Z Z Z

>  <atom.prop.IS_HEAVY_ATOM>  (1306) 
1 0 0 0 1 0 0 1 0 0 0 1 0 0 0 1 1 0 0 0

>  <DIFUSE_FUNC_ATOM>  (1306) 
n/a

>  <FINAL_SINGLE_POINT_ENERGY>  (1306) 
0

>  <NONCOV_INTER_ENERGY_QM>  (1306) 
0

>  <FF_Energy>  (1306) 
27.2

>  <QM_Energy>  (1306) 
13.07

>  <source>  (1306) 
ETAM_MSM

>  <Index>  (1306) 
8149

$$$$
ETAM-pdb3sc4-A-LYS-166:MSM-pdb3sc4-A-MET-169
     RDKit          3D

 20 18  0  0  0  0  0  0  0  0999 V2000
    1.2389    0.8476    0.0000 C   0  0  0  0  0  0  0  0  0  0  0  0
    1.3502    1.2656    0.8940 H   0  0  0  0  0  0  0  0  0  0  0  0
    1.1592    1.5449   -0.7035 H   0  0  0  0  0  0  0  0  0  0  0  0
    2.1222    0.2446   -0.2106 H   0  0  0  0  0  0  0  0  0  0  0  0
    0.0000    0.0000    0.0000 C   0  0  0  0  0  0  0  0  0  0  0  0
    0.0030   -0.5920   -0.8161 H   0  0  0  0  0  0  0  0  0  0  0  0
    0.0026   -0.5928    0.8166 H   0  0  0  0  0  0  0  0  0  0  0  0
   -1.2389    0.8129    0.0000 N   0  0  0  0  0  4  0  0  0  0  0  0
   -1.8302    0.5215   -0.7528 H   0  0  0  0  0  0  0  0  0  0  0  0
   -1.7206    0.6888    0.8680 H   0  0  0  0  0  0  0  0  0  0  0  0
   -1.0057    1.7789   -0.1153 H   0  0  0  0  0  0  0  0  0  0  0  0
   -1.5148    0.3004    4.9277 C   0  0  0  0  0  0  0  0  0  0  0  0
   -2.3493   -0.2724    5.1267 H   0  0  0  0  0  0  0  0  0  0  0  0
   -1.4943    1.0011    5.6855 H   0  0  0  0  0  0  0  0  0  0  0  0
   -0.6216   -0.3224    4.9779 H   0  0  0  0  0  0  0  0  0  0  0  0
   -1.7047    1.1278    3.3335 S   0  0  0  0  0  0  0  0  0  0  0  0
   -3.5017    1.2301    3.3791 C   0  0  0  0  0  0  0  0  0  0  0  0
   -3.8525    0.5902    4.0625 H   0  0  0  0  0  0  0  0  0  0  0  0
   -3.7746    2.1610    3.6196 H   0  0  0  0  0  0  0  0  0  0  0  0
   -3.8697    0.9951    2.4797 H   0  0  0  0  0  0  0  0  0  0  0  0
  1  5  1  0
  5  8  1  0
  1  2  1  0
  1  3  1  0
  1  4  1  0
  5  6  1  0
  5  7  1  0
  8  9  1  0
  8 10  1  0
  8 11  1  0
 12 16  1  0
 16 17  1  0
 12 13  1  0
 12 14  1  0
 12 15  1  0
 17 18  1  0
 17 19  1  0
 17 20  1  0
M  CHG  1   8   1
M  END
>  <PDB_ID>  (1307) 
pdb3sc4

>  <RESIDUE_NAME>  (1307) 
LYS   MET

>  <FRAG_NAME>  (1307) 
ETAM   MSM

>  <FRAG_ATOM_NUM>  (1307) 
fragi: 11  fragj: 9

>  <atom.prop.CHAIN_ID>  (1307) 
A A A A A A A A A A A Z Z Z Z Z Z Z Z Z

>  <atom.prop.IS_HEAVY_ATOM>  (1307) 
1 0 0 0 1 0 0 1 0 0 0 1 0 0 0 1 1 0 0 0

>  <DIFUSE_FUNC_ATOM>  (1307) 
n/a

>  <FINAL_SINGLE_POINT_ENERGY>  (1307) 
0

>  <NONCOV_INTER_ENERGY_QM>  (1307) 
0

>  <FF_Energy>  (1307) 
-5.61

>  <QM_Energy>  (1307) 
-14.06

>  <source>  (1307) 
ETAM_MSM

>  <Index>  (1307) 
8164

$$$$
ETAM-pdb4qge-B-LYS-399:MSM-pdb4qge-B-MET-365
     RDKit          3D

 20 18  0  0  0  0  0  0  0  0999 V2000
    1.2498    0.8840   -0.0000 C   0  0  0  0  0  0  0  0  0  0  0  0
    1.2289    1.4573   -0.8156 H   0  0  0  0  0  0  0  0  0  0  0  0
    2.0524    0.2925   -0.0203 H   0  0  0  0  0  0  0  0  0  0  0  0
    1.3061    1.5256    0.8794 H   0  0  0  0  0  0  0  0  0  0  0  0
    0.0000    0.0000    0.0000 C   0  0  0  0  0  0  0  0  0  0  0  0
    0.0158   -0.5788   -0.8161 H   0  0  0  0  0  0  0  0  0  0  0  0
    0.0148   -0.5785    0.8165 H   0  0  0  0  0  0  0  0  0  0  0  0
   -1.2498    0.8175   -0.0000 N   0  0  0  0  0  4  0  0  0  0  0  0
   -1.8331    0.5266    0.7572 H   0  0  0  0  0  0  0  0  0  0  0  0
   -1.0122    1.7810    0.1083 H   0  0  0  0  0  0  0  0  0  0  0  0
   -1.7297    0.6846   -0.8653 H   0  0  0  0  0  0  0  0  0  0  0  0
   -5.4262    3.8948    0.2904 C   0  0  0  0  0  0  0  0  0  0  0  0
   -4.9279    4.7479    0.5777 H   0  0  0  0  0  0  0  0  0  0  0  0
   -6.2889    3.8889    0.8501 H   0  0  0  0  0  0  0  0  0  0  0  0
   -5.7003    3.9962   -0.7597 H   0  0  0  0  0  0  0  0  0  0  0  0
   -4.4150    2.4135    0.6677 S   0  0  0  0  0  0  0  0  0  0  0  0
   -5.6519    1.1226    0.6553 C   0  0  0  0  0  0  0  0  0  0  0  0
   -5.4909    0.4933    1.4184 H   0  0  0  0  0  0  0  0  0  0  0  0
   -6.5634    1.5272    0.7475 H   0  0  0  0  0  0  0  0  0  0  0  0
   -5.6014    0.6158   -0.2069 H   0  0  0  0  0  0  0  0  0  0  0  0
  1  5  1  0
  5  8  1  0
  1  2  1  0
  1  3  1  0
  1  4  1  0
  5  6  1  0
  5  7  1  0
  8  9  1  0
  8 10  1  0
  8 11  1  0
 12 16  1  0
 16 17  1  0
 12 13  1  0
 12 14  1  0
 12 15  1  0
 17 18  1  0
 17 19  1  0
 17 20  1  0
M  CHG  1   8   1
M  END
>  <PDB_ID>  (1308) 
pdb4qge

>  <RESIDUE_NAME>  (1308) 
LYS   MET

>  <FRAG_NAME>  (1308) 
ETAM   MSM

>  <FRAG_ATOM_NUM>  (1308) 
fragi: 11  fragj: 9

>  <atom.prop.CHAIN_ID>  (1308) 
A A A A A A A A A A A Z Z Z Z Z Z Z Z Z

>  <atom.prop.IS_HEAVY_ATOM>  (1308) 
1 0 0 0 1 0 0 1 0 0 0 1 0 0 0 1 1 0 0 0

>  <DIFUSE_FUNC_ATOM>  (1308) 
n/a

>  <FINAL_SINGLE_POINT_ENERGY>  (1308) 
0

>  <NONCOV_INTER_ENERGY_QM>  (1308) 
0

>  <FF_Energy>  (1308) 
-4.8

>  <QM_Energy>  (1308) 
-10.53

>  <source>  (1308) 
ETAM_MSM

>  <Index>  (1308) 
8172

$$$$
ETAM-pdb4qfk-B-LYS-188:MSM-pdb4qfk-B-MET-192
     RDKit          3D

 20 18  0  0  0  0  0  0  0  0999 V2000
    1.2516    0.8395   -0.0000 C   0  0  0  0  0  0  0  0  0  0  0  0
    1.1412    1.5802   -0.6566 H   0  0  0  0  0  0  0  0  0  0  0  0
    2.0227    0.2645   -0.2556 H   0  0  0  0  0  0  0  0  0  0  0  0
    1.4364    1.2651    0.9863 H   0  0  0  0  0  0  0  0  0  0  0  0
    0.0000    0.0000    0.0000 C   0  0  0  0  0  0  0  0  0  0  0  0
    0.0047   -0.5997   -0.8159 H   0  0  0  0  0  0  0  0  0  0  0  0
    0.0046   -0.5995    0.8159 H   0  0  0  0  0  0  0  0  0  0  0  0
   -1.2516    0.7999    0.0000 N   0  0  0  0  0  4  0  0  0  0  0  0
   -1.8442    0.4904   -0.7432 H   0  0  0  0  0  0  0  0  0  0  0  0
   -1.7225    0.6816    0.8736 H   0  0  0  0  0  0  0  0  0  0  0  0
   -1.0291    1.7663   -0.1304 H   0  0  0  0  0  0  0  0  0  0  0  0
   -1.4665    1.1648    3.8946 C   0  0  0  0  0  0  0  0  0  0  0  0
   -0.5801    1.6272    3.6806 H   0  0  0  0  0  0  0  0  0  0  0  0
   -1.4631    0.2910    3.3643 H   0  0  0  0  0  0  0  0  0  0  0  0
   -1.4778    0.9220    4.9572 H   0  0  0  0  0  0  0  0  0  0  0  0
   -2.8652    2.2025    3.4120 S   0  0  0  0  0  0  0  0  0  0  0  0
   -2.2321    3.0010    1.9239 C   0  0  0  0  0  0  0  0  0  0  0  0
   -2.9607    3.5387    1.5026 H   0  0  0  0  0  0  0  0  0  0  0  0
   -1.4709    3.6004    2.1693 H   0  0  0  0  0  0  0  0  0  0  0  0
   -1.9167    2.3018    1.2835 H   0  0  0  0  0  0  0  0  0  0  0  0
  1  5  1  0
  5  8  1  0
  1  2  1  0
  1  3  1  0
  1  4  1  0
  5  6  1  0
  5  7  1  0
  8  9  1  0
  8 10  1  0
  8 11  1  0
 12 16  1  0
 16 17  1  0
 12 13  1  0
 12 14  1  0
 12 15  1  0
 17 18  1  0
 17 19  1  0
 17 20  1  0
M  CHG  1   8   1
M  END
>  <PDB_ID>  (1309) 
pdb4qfk

>  <RESIDUE_NAME>  (1309) 
LYS   MET

>  <FRAG_NAME>  (1309) 
ETAM   MSM

>  <FRAG_ATOM_NUM>  (1309) 
fragi: 11  fragj: 9

>  <atom.prop.CHAIN_ID>  (1309) 
A A A A A A A A A A A Z Z Z Z Z Z Z Z Z

>  <atom.prop.IS_HEAVY_ATOM>  (1309) 
1 0 0 0 1 0 0 1 0 0 0 1 0 0 0 1 1 0 0 0

>  <DIFUSE_FUNC_ATOM>  (1309) 
n/a

>  <FINAL_SINGLE_POINT_ENERGY>  (1309) 
0

>  <NONCOV_INTER_ENERGY_QM>  (1309) 
0

>  <FF_Energy>  (1309) 
11.52

>  <QM_Energy>  (1309) 
4.62

>  <source>  (1309) 
ETAM_MSM

>  <Index>  (1309) 
8176

$$$$
ETAM-pdb3sc4-B-LYS-166:MSM-pdb3sc4-B-MET-169
     RDKit          3D

 20 18  0  0  0  0  0  0  0  0999 V2000
    1.2583    0.8702    0.0000 C   0  0  0  0  0  0  0  0  0  0  0  0
    1.3496    1.2939    0.9031 H   0  0  0  0  0  0  0  0  0  0  0  0
    1.1479    1.5853   -0.6923 H   0  0  0  0  0  0  0  0  0  0  0  0
    2.1713    0.3153   -0.2162 H   0  0  0  0  0  0  0  0  0  0  0  0
    0.0000    0.0000    0.0000 C   0  0  0  0  0  0  0  0  0  0  0  0
   -0.0115   -0.5650   -0.8159 H   0  0  0  0  0  0  0  0  0  0  0  0
   -0.0119   -0.5650    0.8164 H   0  0  0  0  0  0  0  0  0  0  0  0
   -1.2583    0.8727    0.0000 N   0  0  0  0  0  4  0  0  0  0  0  0
   -1.9347    0.4424   -0.5862 H   0  0  0  0  0  0  0  0  0  0  0  0
   -1.5922    0.9357    0.9327 H   0  0  0  0  0  0  0  0  0  0  0  0
   -1.0133    1.7706   -0.3467 H   0  0  0  0  0  0  0  0  0  0  0  0
   -0.7876    0.7728    5.1400 C   0  0  0  0  0  0  0  0  0  0  0  0
   -1.4100    1.0765    5.9054 H   0  0  0  0  0  0  0  0  0  0  0  0
    0.0468    1.3735    5.2300 H   0  0  0  0  0  0  0  0  0  0  0  0
   -0.5184   -0.2764    5.2614 H   0  0  0  0  0  0  0  0  0  0  0  0
   -1.5889    1.0936    3.5520 S   0  0  0  0  0  0  0  0  0  0  0  0
   -3.3414    0.8879    3.8432 C   0  0  0  0  0  0  0  0  0  0  0  0
   -3.5867    1.2969    4.7243 H   0  0  0  0  0  0  0  0  0  0  0  0
   -3.8596    1.3382    3.1135 H   0  0  0  0  0  0  0  0  0  0  0  0
   -3.5687   -0.0876    3.8560 H   0  0  0  0  0  0  0  0  0  0  0  0
  1  5  1  0
  5  8  1  0
  1  2  1  0
  1  3  1  0
  1  4  1  0
  5  6  1  0
  5  7  1  0
  8  9  1  0
  8 10  1  0
  8 11  1  0
 12 16  1  0
 16 17  1  0
 12 13  1  0
 12 14  1  0
 12 15  1  0
 17 18  1  0
 17 19  1  0
 17 20  1  0
M  CHG  1   8   1
M  END
>  <PDB_ID>  (1310) 
pdb3sc4

>  <RESIDUE_NAME>  (1310) 
LYS   MET

>  <FRAG_NAME>  (1310) 
ETAM   MSM

>  <FRAG_ATOM_NUM>  (1310) 
fragi: 11  fragj: 9

>  <atom.prop.CHAIN_ID>  (1310) 
A A A A A A A A A A A Z Z Z Z Z Z Z Z Z

>  <atom.prop.IS_HEAVY_ATOM>  (1310) 
1 0 0 0 1 0 0 1 0 0 0 1 0 0 0 1 1 0 0 0

>  <DIFUSE_FUNC_ATOM>  (1310) 
n/a

>  <FINAL_SINGLE_POINT_ENERGY>  (1310) 
0

>  <NONCOV_INTER_ENERGY_QM>  (1310) 
0

>  <FF_Energy>  (1310) 
-5.6

>  <QM_Energy>  (1310) 
-13.71

>  <source>  (1310) 
ETAM_MSM

>  <Index>  (1310) 
8179

$$$$
ETAM-pdb4qge-A-LYS-399:MSM-pdb4qge-A-MET-365
     RDKit          3D

 20 18  0  0  0  0  0  0  0  0999 V2000
    1.2706    0.8385   -0.0000 C   0  0  0  0  0  0  0  0  0  0  0  0
    2.0573    0.2225   -0.0014 H   0  0  0  0  0  0  0  0  0  0  0  0
    1.2820    1.3954    0.8293 H   0  0  0  0  0  0  0  0  0  0  0  0
    1.3406    1.4965   -0.8662 H   0  0  0  0  0  0  0  0  0  0  0  0
    0.0000    0.0000    0.0000 C   0  0  0  0  0  0  0  0  0  0  0  0
    0.0226   -0.6147   -0.8159 H   0  0  0  0  0  0  0  0  0  0  0  0
    0.0217   -0.6150    0.8163 H   0  0  0  0  0  0  0  0  0  0  0  0
   -1.2706    0.7537   -0.0000 N   0  0  0  0  0  4  0  0  0  0  0  0
   -1.0972    1.7057    0.2562 H   0  0  0  0  0  0  0  0  0  0  0  0
   -1.6788    0.7259   -0.9139 H   0  0  0  0  0  0  0  0  0  0  0  0
   -1.9050    0.3444    0.6583 H   0  0  0  0  0  0  0  0  0  0  0  0
   -5.0136   -0.6373   -3.9334 C   0  0  0  0  0  0  0  0  0  0  0  0
   -4.4564   -0.4147   -4.7538 H   0  0  0  0  0  0  0  0  0  0  0  0
   -5.9404   -0.2503   -4.0931 H   0  0  0  0  0  0  0  0  0  0  0  0
   -5.0919   -1.7206   -3.8404 H   0  0  0  0  0  0  0  0  0  0  0  0
   -4.2699    0.0913   -2.4461 S   0  0  0  0  0  0  0  0  0  0  0  0
   -5.6236   -0.0513   -1.2673 C   0  0  0  0  0  0  0  0  0  0  0  0
   -6.3390   -0.6330   -1.6537 H   0  0  0  0  0  0  0  0  0  0  0  0
   -5.2837   -0.4562   -0.4195 H   0  0  0  0  0  0  0  0  0  0  0  0
   -5.9957    0.8574   -1.0790 H   0  0  0  0  0  0  0  0  0  0  0  0
  1  5  1  0
  5  8  1  0
  1  2  1  0
  1  3  1  0
  1  4  1  0
  5  6  1  0
  5  7  1  0
  8  9  1  0
  8 10  1  0
  8 11  1  0
 12 16  1  0
 16 17  1  0
 12 13  1  0
 12 14  1  0
 12 15  1  0
 17 18  1  0
 17 19  1  0
 17 20  1  0
M  CHG  1   8   1
M  END
>  <PDB_ID>  (1311) 
pdb4qge

>  <RESIDUE_NAME>  (1311) 
LYS   MET

>  <FRAG_NAME>  (1311) 
ETAM   MSM

>  <FRAG_ATOM_NUM>  (1311) 
fragi: 11  fragj: 9

>  <atom.prop.CHAIN_ID>  (1311) 
A A A A A A A A A A A Z Z Z Z Z Z Z Z Z

>  <atom.prop.IS_HEAVY_ATOM>  (1311) 
1 0 0 0 1 0 0 1 0 0 0 1 0 0 0 1 1 0 0 0

>  <DIFUSE_FUNC_ATOM>  (1311) 
n/a

>  <FINAL_SINGLE_POINT_ENERGY>  (1311) 
0

>  <NONCOV_INTER_ENERGY_QM>  (1311) 
0

>  <FF_Energy>  (1311) 
-4.25

>  <QM_Energy>  (1311) 
-9.66

>  <source>  (1311) 
ETAM_MSM

>  <Index>  (1311) 
8181

$$$$
ETAM-pdb4qgk-A-LYS-211:MSM-pdb4qgk-A-MET-328
     RDKit          3D

 20 18  0  0  0  0  0  0  0  0999 V2000
    1.2692    0.8135    0.0000 C   0  0  0  0  0  0  0  0  0  0  0  0
    1.2087    1.4959   -0.7315 H   0  0  0  0  0  0  0  0  0  0  0  0
    2.0398    0.2000   -0.1850 H   0  0  0  0  0  0  0  0  0  0  0  0
    1.4362    1.3217    0.9498 H   0  0  0  0  0  0  0  0  0  0  0  0
    0.0000    0.0000    0.0000 C   0  0  0  0  0  0  0  0  0  0  0  0
   -0.0200   -0.5965   -0.8163 H   0  0  0  0  0  0  0  0  0  0  0  0
   -0.0205   -0.5959    0.8162 H   0  0  0  0  0  0  0  0  0  0  0  0
   -1.2692    0.8359    0.0000 N   0  0  0  0  0  4  0  0  0  0  0  0
   -1.0212    1.7865   -0.1560 H   0  0  0  0  0  0  0  0  0  0  0  0
   -1.8628    0.5084   -0.7276 H   0  0  0  0  0  0  0  0  0  0  0  0
   -1.7150    0.7339    0.8837 H   0  0  0  0  0  0  0  0  0  0  0  0
   -2.8446   -3.4853   -2.1529 C   0  0  0  0  0  0  0  0  0  0  0  0
   -3.7659   -3.1487   -2.4029 H   0  0  0  0  0  0  0  0  0  0  0  0
   -2.8482   -4.4919   -2.2587 H   0  0  0  0  0  0  0  0  0  0  0  0
   -2.1286   -3.0714   -2.8629 H   0  0  0  0  0  0  0  0  0  0  0  0
   -2.4103   -3.0080   -0.4660 S   0  0  0  0  0  0  0  0  0  0  0  0
   -0.8643   -3.8425   -0.2300 C   0  0  0  0  0  0  0  0  0  0  0  0
   -0.3749   -3.9172   -1.1044 H   0  0  0  0  0  0  0  0  0  0  0  0
   -0.2927   -3.3323    0.4190 H   0  0  0  0  0  0  0  0  0  0  0  0
   -1.0224   -4.7653    0.1327 H   0  0  0  0  0  0  0  0  0  0  0  0
  1  5  1  0
  5  8  1  0
  1  2  1  0
  1  3  1  0
  1  4  1  0
  5  6  1  0
  5  7  1  0
  8  9  1  0
  8 10  1  0
  8 11  1  0
 12 16  1  0
 16 17  1  0
 12 13  1  0
 12 14  1  0
 12 15  1  0
 17 18  1  0
 17 19  1  0
 17 20  1  0
M  CHG  1   8   1
M  END
>  <PDB_ID>  (1312) 
pdb4qgk

>  <RESIDUE_NAME>  (1312) 
LYS   MET

>  <FRAG_NAME>  (1312) 
ETAM   MSM

>  <FRAG_ATOM_NUM>  (1312) 
fragi: 11  fragj: 9

>  <atom.prop.CHAIN_ID>  (1312) 
A A A A A A A A A A A Z Z Z Z Z Z Z Z Z

>  <atom.prop.IS_HEAVY_ATOM>  (1312) 
1 0 0 0 1 0 0 1 0 0 0 1 0 0 0 1 1 0 0 0

>  <DIFUSE_FUNC_ATOM>  (1312) 
n/a

>  <FINAL_SINGLE_POINT_ENERGY>  (1312) 
0

>  <NONCOV_INTER_ENERGY_QM>  (1312) 
0

>  <FF_Energy>  (1312) 
-4.19

>  <QM_Energy>  (1312) 
-9.49

>  <source>  (1312) 
ETAM_MSM

>  <Index>  (1312) 
8189

$$$$
ETAM-pdb4qli-A-LYS-9:MSM-pdb4qli-A-MET-1
     RDKit          3D

 20 18  0  0  0  0  0  0  0  0999 V2000
    1.2157    0.9703   -0.0000 C   0  0  0  0  0  0  0  0  0  0  0  0
    1.1725    1.4976    0.8215 H   0  0  0  0  0  0  0  0  0  0  0  0
    1.1622    1.5110   -0.8122 H   0  0  0  0  0  0  0  0  0  0  0  0
    2.1187    0.3598   -0.0102 H   0  0  0  0  0  0  0  0  0  0  0  0
    0.0000    0.0000    0.0000 C   0  0  0  0  0  0  0  0  0  0  0  0
    0.0666   -0.5615   -0.8163 H   0  0  0  0  0  0  0  0  0  0  0  0
    0.0668   -0.5615    0.8164 H   0  0  0  0  0  0  0  0  0  0  0  0
   -1.2157    0.7776    0.0000 N   0  0  0  0  0  4  0  0  0  0  0  0
   -1.8848    0.3877   -0.6436 H   0  0  0  0  0  0  0  0  0  0  0  0
   -1.6289    0.7887    0.9183 H   0  0  0  0  0  0  0  0  0  0  0  0
   -1.0280    1.7282   -0.2748 H   0  0  0  0  0  0  0  0  0  0  0  0
   -1.6084    2.6977    4.0927 C   0  0  0  0  0  0  0  0  0  0  0  0
   -1.3396    2.0056    4.8376 H   0  0  0  0  0  0  0  0  0  0  0  0
   -2.5260    2.3071    3.7582 H   0  0  0  0  0  0  0  0  0  0  0  0
   -1.7924    3.6626    4.5652 H   0  0  0  0  0  0  0  0  0  0  0  0
   -0.3929    2.6374    2.7394 S   0  0  0  0  0  0  0  0  0  0  0  0
   -1.0709    3.9140    1.7146 C   0  0  0  0  0  0  0  0  0  0  0  0
   -0.3325    4.4316    1.2732 H   0  0  0  0  0  0  0  0  0  0  0  0
   -1.6542    3.5122    1.0029 H   0  0  0  0  0  0  0  0  0  0  0  0
   -1.6226    4.5454    2.2682 H   0  0  0  0  0  0  0  0  0  0  0  0
  1  5  1  0
  5  8  1  0
  1  2  1  0
  1  3  1  0
  1  4  1  0
  5  6  1  0
  5  7  1  0
  8  9  1  0
  8 10  1  0
  8 11  1  0
 12 16  1  0
 16 17  1  0
 12 13  1  0
 12 14  1  0
 12 15  1  0
 17 18  1  0
 17 19  1  0
 17 20  1  0
M  CHG  1   8   1
M  END
>  <PDB_ID>  (1313) 
pdb4qli

>  <RESIDUE_NAME>  (1313) 
LYS   MET

>  <FRAG_NAME>  (1313) 
ETAM   MSM

>  <FRAG_ATOM_NUM>  (1313) 
fragi: 11  fragj: 9

>  <atom.prop.CHAIN_ID>  (1313) 
A A A A A A A A A A A Z Z Z Z Z Z Z Z Z

>  <atom.prop.IS_HEAVY_ATOM>  (1313) 
1 0 0 0 1 0 0 1 0 0 0 1 0 0 0 1 1 0 0 0

>  <DIFUSE_FUNC_ATOM>  (1313) 
n/a

>  <FINAL_SINGLE_POINT_ENERGY>  (1313) 
0

>  <NONCOV_INTER_ENERGY_QM>  (1313) 
0

>  <FF_Energy>  (1313) 
-3.68

>  <QM_Energy>  (1313) 
-11.08

>  <source>  (1313) 
ETAM_MSM

>  <Index>  (1313) 
8191

$$$$
ETAM-pdb4qgk-B-LYS-211:MSM-pdb4qgk-B-MET-328
     RDKit          3D

 20 18  0  0  0  0  0  0  0  0999 V2000
    1.2399    0.9270   -0.0000 C   0  0  0  0  0  0  0  0  0  0  0  0
    1.1340    1.5777   -0.7544 H   0  0  0  0  0  0  0  0  0  0  0  0
    2.0460    0.3562   -0.1689 H   0  0  0  0  0  0  0  0  0  0  0  0
    1.3796    1.4783    0.9298 H   0  0  0  0  0  0  0  0  0  0  0  0
    0.0000    0.0000    0.0000 C   0  0  0  0  0  0  0  0  0  0  0  0
    0.0234   -0.5567   -0.8164 H   0  0  0  0  0  0  0  0  0  0  0  0
    0.0232   -0.5570    0.8163 H   0  0  0  0  0  0  0  0  0  0  0  0
   -1.2399    0.8397    0.0000 N   0  0  0  0  0  4  0  0  0  0  0  0
   -1.9827    0.3253   -0.4231 H   0  0  0  0  0  0  0  0  0  0  0  0
   -1.4796    1.0686    0.9411 H   0  0  0  0  0  0  0  0  0  0  0  0
   -1.0684    1.6754   -0.5187 H   0  0  0  0  0  0  0  0  0  0  0  0
   -2.8609   -3.5142   -2.0559 C   0  0  0  0  0  0  0  0  0  0  0  0
   -3.8285   -3.2456   -2.2781 H   0  0  0  0  0  0  0  0  0  0  0  0
   -2.8441   -4.5401   -2.1352 H   0  0  0  0  0  0  0  0  0  0  0  0
   -2.1952   -3.0896   -2.8074 H   0  0  0  0  0  0  0  0  0  0  0  0
   -2.4639   -3.0205   -0.3193 S   0  0  0  0  0  0  0  0  0  0  0  0
   -0.8969   -3.8342   -0.1357 C   0  0  0  0  0  0  0  0  0  0  0  0
   -1.0348   -4.7840    0.1588 H   0  0  0  0  0  0  0  0  0  0  0  0
   -0.4046   -3.8330   -1.0102 H   0  0  0  0  0  0  0  0  0  0  0  0
   -0.3406   -3.3587    0.5512 H   0  0  0  0  0  0  0  0  0  0  0  0
  1  5  1  0
  5  8  1  0
  1  2  1  0
  1  3  1  0
  1  4  1  0
  5  6  1  0
  5  7  1  0
  8  9  1  0
  8 10  1  0
  8 11  1  0
 12 16  1  0
 16 17  1  0
 12 13  1  0
 12 14  1  0
 12 15  1  0
 17 18  1  0
 17 19  1  0
 17 20  1  0
M  CHG  1   8   1
M  END
>  <PDB_ID>  (1314) 
pdb4qgk

>  <RESIDUE_NAME>  (1314) 
LYS   MET

>  <FRAG_NAME>  (1314) 
ETAM   MSM

>  <FRAG_ATOM_NUM>  (1314) 
fragi: 11  fragj: 9

>  <atom.prop.CHAIN_ID>  (1314) 
A A A A A A A A A A A Z Z Z Z Z Z Z Z Z

>  <atom.prop.IS_HEAVY_ATOM>  (1314) 
1 0 0 0 1 0 0 1 0 0 0 1 0 0 0 1 1 0 0 0

>  <DIFUSE_FUNC_ATOM>  (1314) 
n/a

>  <FINAL_SINGLE_POINT_ENERGY>  (1314) 
0

>  <NONCOV_INTER_ENERGY_QM>  (1314) 
0

>  <FF_Energy>  (1314) 
-4.22

>  <QM_Energy>  (1314) 
-9.83

>  <source>  (1314) 
ETAM_MSM

>  <Index>  (1314) 
8201

$$$$
ETAM-pdb3sp4-A-LYS-39:MSM-pdb3sp4-A-MET-32
     RDKit          3D

 20 18  0  0  0  0  0  0  0  0999 V2000
    1.2523    0.8657   -0.0000 C   0  0  0  0  0  0  0  0  0  0  0  0
    1.2144    1.4794    0.7823 H   0  0  0  0  0  0  0  0  0  0  0  0
    1.2776    1.3871   -0.8470 H   0  0  0  0  0  0  0  0  0  0  0  0
    2.1592    0.2651    0.0701 H   0  0  0  0  0  0  0  0  0  0  0  0
    0.0000    0.0000    0.0000 C   0  0  0  0  0  0  0  0  0  0  0  0
    0.0062   -0.5831   -0.8163 H   0  0  0  0  0  0  0  0  0  0  0  0
    0.0052   -0.5830    0.8161 H   0  0  0  0  0  0  0  0  0  0  0  0
   -1.2523    0.8226    0.0000 N   0  0  0  0  0  4  0  0  0  0  0  0
   -2.0345    0.2267   -0.1698 H   0  0  0  0  0  0  0  0  0  0  0  0
   -1.3513    1.2667    0.8877 H   0  0  0  0  0  0  0  0  0  0  0  0
   -1.1901    1.5126   -0.7180 H   0  0  0  0  0  0  0  0  0  0  0  0
   -5.7496    0.1890   -2.8867 C   0  0  0  0  0  0  0  0  0  0  0  0
   -6.6059    0.7455   -2.7596 H   0  0  0  0  0  0  0  0  0  0  0  0
   -6.0442   -0.7876   -2.7500 H   0  0  0  0  0  0  0  0  0  0  0  0
   -5.4203    0.3035   -3.9194 H   0  0  0  0  0  0  0  0  0  0  0  0
   -4.4967    0.6556   -1.6697 S   0  0  0  0  0  0  0  0  0  0  0  0
   -5.5006    1.0113   -0.2278 C   0  0  0  0  0  0  0  0  0  0  0  0
   -5.0012    0.7527    0.6001 H   0  0  0  0  0  0  0  0  0  0  0  0
   -5.7098    1.9892   -0.1987 H   0  0  0  0  0  0  0  0  0  0  0  0
   -6.3541    0.4902   -0.2767 H   0  0  0  0  0  0  0  0  0  0  0  0
  1  5  1  0
  5  8  1  0
  1  2  1  0
  1  3  1  0
  1  4  1  0
  5  6  1  0
  5  7  1  0
  8  9  1  0
  8 10  1  0
  8 11  1  0
 12 16  1  0
 16 17  1  0
 12 13  1  0
 12 14  1  0
 12 15  1  0
 17 18  1  0
 17 19  1  0
 17 20  1  0
M  CHG  1   8   1
M  END
>  <PDB_ID>  (1315) 
pdb3sp4

>  <RESIDUE_NAME>  (1315) 
LYS   MET

>  <FRAG_NAME>  (1315) 
ETAM   MSM

>  <FRAG_ATOM_NUM>  (1315) 
fragi: 11  fragj: 9

>  <atom.prop.CHAIN_ID>  (1315) 
A A A A A A A A A A A Z Z Z Z Z Z Z Z Z

>  <atom.prop.IS_HEAVY_ATOM>  (1315) 
1 0 0 0 1 0 0 1 0 0 0 1 0 0 0 1 1 0 0 0

>  <DIFUSE_FUNC_ATOM>  (1315) 
n/a

>  <FINAL_SINGLE_POINT_ENERGY>  (1315) 
0

>  <NONCOV_INTER_ENERGY_QM>  (1315) 
0

>  <FF_Energy>  (1315) 
-4.72

>  <QM_Energy>  (1315) 
-10.64

>  <source>  (1315) 
ETAM_MSM

>  <Index>  (1315) 
8203

$$$$
ETAM-pdb3ss1-A-LYS-448:MSM-pdb3ss1-A-MET-444
     RDKit          3D

 20 18  0  0  0  0  0  0  0  0999 V2000
    1.2418    0.8899   -0.0000 C   0  0  0  0  0  0  0  0  0  0  0  0
    1.1071    1.6132    0.6653 H   0  0  0  0  0  0  0  0  0  0  0  0
    1.3581    1.2640   -0.9107 H   0  0  0  0  0  0  0  0  0  0  0  0
    2.1280    0.3151    0.2691 H   0  0  0  0  0  0  0  0  0  0  0  0
    0.0000    0.0000    0.0000 C   0  0  0  0  0  0  0  0  0  0  0  0
    0.0170   -0.5767   -0.8162 H   0  0  0  0  0  0  0  0  0  0  0  0
    0.0169   -0.5760    0.8160 H   0  0  0  0  0  0  0  0  0  0  0  0
   -1.2418    0.8197    0.0000 N   0  0  0  0  0  4  0  0  0  0  0  0
   -1.7433    0.6630   -0.8507 H   0  0  0  0  0  0  0  0  0  0  0  0
   -1.8131    0.5573    0.7774 H   0  0  0  0  0  0  0  0  0  0  0  0
   -1.0004    1.7872    0.0728 H   0  0  0  0  0  0  0  0  0  0  0  0
   -0.9280    0.8622    3.5413 C   0  0  0  0  0  0  0  0  0  0  0  0
   -1.7294    1.3613    3.1347 H   0  0  0  0  0  0  0  0  0  0  0  0
   -0.1206    1.1387    2.9680 H   0  0  0  0  0  0  0  0  0  0  0  0
   -0.7743    1.2207    4.5590 H   0  0  0  0  0  0  0  0  0  0  0  0
   -1.1834   -0.9238    3.4515 S   0  0  0  0  0  0  0  0  0  0  0  0
    0.5082   -1.4767    3.5122 C   0  0  0  0  0  0  0  0  0  0  0  0
    1.1257   -0.7049    3.3414 H   0  0  0  0  0  0  0  0  0  0  0  0
    0.7091   -1.8628    4.4161 H   0  0  0  0  0  0  0  0  0  0  0  0
    0.6623   -2.1801    2.8140 H   0  0  0  0  0  0  0  0  0  0  0  0
  1  5  1  0
  5  8  1  0
  1  2  1  0
  1  3  1  0
  1  4  1  0
  5  6  1  0
  5  7  1  0
  8  9  1  0
  8 10  1  0
  8 11  1  0
 12 16  1  0
 16 17  1  0
 12 13  1  0
 12 14  1  0
 12 15  1  0
 17 18  1  0
 17 19  1  0
 17 20  1  0
M  CHG  1   8   1
M  END
>  <PDB_ID>  (1316) 
pdb3ss1

>  <RESIDUE_NAME>  (1316) 
LYS   MET

>  <FRAG_NAME>  (1316) 
ETAM   MSM

>  <FRAG_ATOM_NUM>  (1316) 
fragi: 11  fragj: 9

>  <atom.prop.CHAIN_ID>  (1316) 
A A A A A A A A A A A Z Z Z Z Z Z Z Z Z

>  <atom.prop.IS_HEAVY_ATOM>  (1316) 
1 0 0 0 1 0 0 1 0 0 0 1 0 0 0 1 1 0 0 0

>  <DIFUSE_FUNC_ATOM>  (1316) 
n/a

>  <FINAL_SINGLE_POINT_ENERGY>  (1316) 
0

>  <NONCOV_INTER_ENERGY_QM>  (1316) 
0

>  <FF_Energy>  (1316) 
-3.02

>  <QM_Energy>  (1316) 
-8.44

>  <source>  (1316) 
ETAM_MSM

>  <Index>  (1316) 
8218

$$$$
ETAM-pdb3sqg-A-LYS-17:MSM-pdb3sqg-A-MET-78
     RDKit          3D

 20 18  0  0  0  0  0  0  0  0999 V2000
    1.2651    0.8666   -0.0000 C   0  0  0  0  0  0  0  0  0  0  0  0
    1.0472    1.7439   -0.4189 H   0  0  0  0  0  0  0  0  0  0  0  0
    1.9687    0.3987   -0.5280 H   0  0  0  0  0  0  0  0  0  0  0  0
    1.6477    1.0482    1.0043 H   0  0  0  0  0  0  0  0  0  0  0  0
    0.0000    0.0000    0.0000 C   0  0  0  0  0  0  0  0  0  0  0  0
    0.0088   -0.5845   -0.8167 H   0  0  0  0  0  0  0  0  0  0  0  0
    0.0087   -0.5847    0.8164 H   0  0  0  0  0  0  0  0  0  0  0  0
   -1.2651    0.8174    0.0000 N   0  0  0  0  0  4  0  0  0  0  0  0
   -1.6253    0.8546   -0.9291 H   0  0  0  0  0  0  0  0  0  0  0  0
   -1.9274    0.3861    0.6067 H   0  0  0  0  0  0  0  0  0  0  0  0
   -1.0557    1.7369    0.3221 H   0  0  0  0  0  0  0  0  0  0  0  0
   -3.6418    0.1839    2.4194 C   0  0  0  0  0  0  0  0  0  0  0  0
   -4.5688    0.3577    2.8295 H   0  0  0  0  0  0  0  0  0  0  0  0
   -3.4156    1.0413    1.8983 H   0  0  0  0  0  0  0  0  0  0  0  0
   -2.9206    0.0677    3.2284 H   0  0  0  0  0  0  0  0  0  0  0  0
   -3.7140   -1.2440    1.2818 S   0  0  0  0  0  0  0  0  0  0  0  0
   -5.3070   -0.9525    0.5268 C   0  0  0  0  0  0  0  0  0  0  0  0
   -6.0359   -1.2179    1.1617 H   0  0  0  0  0  0  0  0  0  0  0  0
   -5.4024    0.0194    0.3027 H   0  0  0  0  0  0  0  0  0  0  0  0
   -5.3873   -1.4938   -0.3121 H   0  0  0  0  0  0  0  0  0  0  0  0
  1  5  1  0
  5  8  1  0
  1  2  1  0
  1  3  1  0
  1  4  1  0
  5  6  1  0
  5  7  1  0
  8  9  1  0
  8 10  1  0
  8 11  1  0
 12 16  1  0
 16 17  1  0
 12 13  1  0
 12 14  1  0
 12 15  1  0
 17 18  1  0
 17 19  1  0
 17 20  1  0
M  CHG  1   8   1
M  END
>  <PDB_ID>  (1317) 
pdb3sqg

>  <RESIDUE_NAME>  (1317) 
LYS   MET

>  <FRAG_NAME>  (1317) 
ETAM   MSM

>  <FRAG_ATOM_NUM>  (1317) 
fragi: 11  fragj: 9

>  <atom.prop.CHAIN_ID>  (1317) 
A A A A A A A A A A A Z Z Z Z Z Z Z Z Z

>  <atom.prop.IS_HEAVY_ATOM>  (1317) 
1 0 0 0 1 0 0 1 0 0 0 1 0 0 0 1 1 0 0 0

>  <DIFUSE_FUNC_ATOM>  (1317) 
n/a

>  <FINAL_SINGLE_POINT_ENERGY>  (1317) 
0

>  <NONCOV_INTER_ENERGY_QM>  (1317) 
0

>  <FF_Energy>  (1317) 
-4.11

>  <QM_Energy>  (1317) 
-12.26

>  <source>  (1317) 
ETAM_MSM

>  <Index>  (1317) 
8221

$$$$
ETAM-pdb3sqg-D-LYS-17:MSM-pdb3sqg-D-MET-78
     RDKit          3D

 20 18  0  0  0  0  0  0  0  0999 V2000
    1.2532    0.8537    0.0000 C   0  0  0  0  0  0  0  0  0  0  0  0
    1.0657    1.6982    0.4917 H   0  0  0  0  0  0  0  0  0  0  0  0
    1.5068    1.0500   -0.9418 H   0  0  0  0  0  0  0  0  0  0  0  0
    2.0833    0.3423    0.4873 H   0  0  0  0  0  0  0  0  0  0  0  0
    0.0000    0.0000    0.0000 C   0  0  0  0  0  0  0  0  0  0  0  0
    0.0072   -0.5920   -0.8158 H   0  0  0  0  0  0  0  0  0  0  0  0
    0.0071   -0.5928    0.8165 H   0  0  0  0  0  0  0  0  0  0  0  0
   -1.2532    0.8075   -0.0000 N   0  0  0  0  0  4  0  0  0  0  0  0
   -1.9062    0.4045    0.6398 H   0  0  0  0  0  0  0  0  0  0  0  0
   -1.0429    1.7436    0.2800 H   0  0  0  0  0  0  0  0  0  0  0  0
   -1.6439    0.8119   -0.9192 H   0  0  0  0  0  0  0  0  0  0  0  0
   -3.0160   -1.8472    1.3941 C   0  0  0  0  0  0  0  0  0  0  0  0
   -3.8440   -2.1236    1.9380 H   0  0  0  0  0  0  0  0  0  0  0  0
   -2.7678   -0.9110    1.7403 H   0  0  0  0  0  0  0  0  0  0  0  0
   -2.2016   -2.5330    1.6277 H   0  0  0  0  0  0  0  0  0  0  0  0
   -3.4205   -1.7767   -0.3781 S   0  0  0  0  0  0  0  0  0  0  0  0
   -5.1889   -1.5075   -0.2546 C   0  0  0  0  0  0  0  0  0  0  0  0
   -5.5815   -2.1559    0.3989 H   0  0  0  0  0  0  0  0  0  0  0  0
   -5.3647   -0.5733    0.0581 H   0  0  0  0  0  0  0  0  0  0  0  0
   -5.6117   -1.6424   -1.1521 H   0  0  0  0  0  0  0  0  0  0  0  0
  1  5  1  0
  5  8  1  0
  1  2  1  0
  1  3  1  0
  1  4  1  0
  5  6  1  0
  5  7  1  0
  8  9  1  0
  8 10  1  0
  8 11  1  0
 12 16  1  0
 16 17  1  0
 12 13  1  0
 12 14  1  0
 12 15  1  0
 17 18  1  0
 17 19  1  0
 17 20  1  0
M  CHG  1   8   1
M  END
>  <PDB_ID>  (1318) 
pdb3sqg

>  <RESIDUE_NAME>  (1318) 
LYS   MET

>  <FRAG_NAME>  (1318) 
ETAM   MSM

>  <FRAG_ATOM_NUM>  (1318) 
fragi: 11  fragj: 9

>  <atom.prop.CHAIN_ID>  (1318) 
A A A A A A A A A A A Z Z Z Z Z Z Z Z Z

>  <atom.prop.IS_HEAVY_ATOM>  (1318) 
1 0 0 0 1 0 0 1 0 0 0 1 0 0 0 1 1 0 0 0

>  <DIFUSE_FUNC_ATOM>  (1318) 
n/a

>  <FINAL_SINGLE_POINT_ENERGY>  (1318) 
0

>  <NONCOV_INTER_ENERGY_QM>  (1318) 
0

>  <FF_Energy>  (1318) 
-3.91

>  <QM_Energy>  (1318) 
-10.93

>  <source>  (1318) 
ETAM_MSM

>  <Index>  (1318) 
8223

$$$$
ETAM-pdb3sqg-G-LYS-17:MSM-pdb3sqg-G-MET-78
     RDKit          3D

 20 18  0  0  0  0  0  0  0  0999 V2000
    1.2543    0.8632    0.0000 C   0  0  0  0  0  0  0  0  0  0  0  0
    0.9940    1.8029   -0.2027 H   0  0  0  0  0  0  0  0  0  0  0  0
    1.8757    0.5203   -0.6977 H   0  0  0  0  0  0  0  0  0  0  0  0
    1.7632    0.8416    0.9637 H   0  0  0  0  0  0  0  0  0  0  0  0
    0.0000    0.0000    0.0000 C   0  0  0  0  0  0  0  0  0  0  0  0
    0.0141   -0.5910   -0.8158 H   0  0  0  0  0  0  0  0  0  0  0  0
    0.0130   -0.5914    0.8162 H   0  0  0  0  0  0  0  0  0  0  0  0
   -1.2543    0.8004   -0.0000 N   0  0  0  0  0  4  0  0  0  0  0  0
   -1.5588    0.9407   -0.9420 H   0  0  0  0  0  0  0  0  0  0  0  0
   -1.9601    0.3102    0.5105 H   0  0  0  0  0  0  0  0  0  0  0  0
   -1.0827    1.6863    0.4313 H   0  0  0  0  0  0  0  0  0  0  0  0
   -3.4320   -1.0816    2.1909 C   0  0  0  0  0  0  0  0  0  0  0  0
   -4.3255   -1.2558    2.6754 H   0  0  0  0  0  0  0  0  0  0  0  0
   -3.4131   -0.0614    2.0387 H   0  0  0  0  0  0  0  0  0  0  0  0
   -2.6133   -1.3521    2.8578 H   0  0  0  0  0  0  0  0  0  0  0  0
   -3.4074   -1.9527    0.5914 S   0  0  0  0  0  0  0  0  0  0  0  0
   -5.1510   -1.7981    0.1978 C   0  0  0  0  0  0  0  0  0  0  0  0
   -5.2571   -1.2857   -0.6558 H   0  0  0  0  0  0  0  0  0  0  0  0
   -5.5517   -2.7092    0.0909 H   0  0  0  0  0  0  0  0  0  0  0  0
   -5.6191   -1.3128    0.9376 H   0  0  0  0  0  0  0  0  0  0  0  0
  1  5  1  0
  5  8  1  0
  1  2  1  0
  1  3  1  0
  1  4  1  0
  5  6  1  0
  5  7  1  0
  8  9  1  0
  8 10  1  0
  8 11  1  0
 12 16  1  0
 16 17  1  0
 12 13  1  0
 12 14  1  0
 12 15  1  0
 17 18  1  0
 17 19  1  0
 17 20  1  0
M  CHG  1   8   1
M  END
>  <PDB_ID>  (1319) 
pdb3sqg

>  <RESIDUE_NAME>  (1319) 
LYS   MET

>  <FRAG_NAME>  (1319) 
ETAM   MSM

>  <FRAG_ATOM_NUM>  (1319) 
fragi: 11  fragj: 9

>  <atom.prop.CHAIN_ID>  (1319) 
A A A A A A A A A A A Z Z Z Z Z Z Z Z Z

>  <atom.prop.IS_HEAVY_ATOM>  (1319) 
1 0 0 0 1 0 0 1 0 0 0 1 0 0 0 1 1 0 0 0

>  <DIFUSE_FUNC_ATOM>  (1319) 
n/a

>  <FINAL_SINGLE_POINT_ENERGY>  (1319) 
0

>  <NONCOV_INTER_ENERGY_QM>  (1319) 
0

>  <FF_Energy>  (1319) 
-4.36

>  <QM_Energy>  (1319) 
-11.58

>  <source>  (1319) 
ETAM_MSM

>  <Index>  (1319) 
8228

$$$$
ETAM-pdb3sqg-I-LYS-243:MSM-pdb3sqg-H-MET-295
     RDKit          3D

 20 18  0  0  0  0  0  0  0  0999 V2000
    1.2675    0.8556    0.0000 C   0  0  0  0  0  0  0  0  0  0  0  0
    1.3045    1.3628    0.8508 H   0  0  0  0  0  0  0  0  0  0  0  0
    1.2323    1.4708   -0.7767 H   0  0  0  0  0  0  0  0  0  0  0  0
    2.1597    0.2346   -0.0802 H   0  0  0  0  0  0  0  0  0  0  0  0
    0.0000    0.0000    0.0000 C   0  0  0  0  0  0  0  0  0  0  0  0
    0.0084   -0.5914   -0.8160 H   0  0  0  0  0  0  0  0  0  0  0  0
    0.0079   -0.5922    0.8162 H   0  0  0  0  0  0  0  0  0  0  0  0
   -1.2675    0.8062    0.0000 N   0  0  0  0  0  4  0  0  0  0  0  0
   -1.7003    0.7318    0.8959 H   0  0  0  0  0  0  0  0  0  0  0  0
   -1.0460    1.7595   -0.1925 H   0  0  0  0  0  0  0  0  0  0  0  0
   -1.8786    0.4502   -0.7033 H   0  0  0  0  0  0  0  0  0  0  0  0
   -2.6897   -1.9245    4.0907 C   0  0  0  0  0  0  0  0  0  0  0  0
   -3.4878   -1.8126    3.4493 H   0  0  0  0  0  0  0  0  0  0  0  0
   -2.2835   -0.9810    4.1743 H   0  0  0  0  0  0  0  0  0  0  0  0
   -3.0717   -2.2240    5.0667 H   0  0  0  0  0  0  0  0  0  0  0  0
   -1.4785   -3.0770    3.4005 S   0  0  0  0  0  0  0  0  0  0  0  0
   -0.9564   -2.1546    1.9592 C   0  0  0  0  0  0  0  0  0  0  0  0
   -0.0464   -1.7681    2.1184 H   0  0  0  0  0  0  0  0  0  0  0  0
   -0.9236   -2.7620    1.1641 H   0  0  0  0  0  0  0  0  0  0  0  0
   -1.6042   -1.4126    1.7810 H   0  0  0  0  0  0  0  0  0  0  0  0
  1  5  1  0
  5  8  1  0
  1  2  1  0
  1  3  1  0
  1  4  1  0
  5  6  1  0
  5  7  1  0
  8  9  1  0
  8 10  1  0
  8 11  1  0
 12 16  1  0
 16 17  1  0
 12 13  1  0
 12 14  1  0
 12 15  1  0
 17 18  1  0
 17 19  1  0
 17 20  1  0
M  CHG  1   8   1
M  END
>  <PDB_ID>  (1320) 
pdb3sqg

>  <RESIDUE_NAME>  (1320) 
LYS   MET

>  <FRAG_NAME>  (1320) 
ETAM   MSM

>  <FRAG_ATOM_NUM>  (1320) 
fragi: 11  fragj: 9

>  <atom.prop.CHAIN_ID>  (1320) 
A A A A A A A A A A A Z Z Z Z Z Z Z Z Z

>  <atom.prop.IS_HEAVY_ATOM>  (1320) 
1 0 0 0 1 0 0 1 0 0 0 1 0 0 0 1 1 0 0 0

>  <DIFUSE_FUNC_ATOM>  (1320) 
n/a

>  <FINAL_SINGLE_POINT_ENERGY>  (1320) 
0

>  <NONCOV_INTER_ENERGY_QM>  (1320) 
0

>  <FF_Energy>  (1320) 
16.84

>  <QM_Energy>  (1320) 
4.19

>  <source>  (1320) 
ETAM_MSM

>  <Index>  (1320) 
8231

$$$$
ETAM-pdb4qny-B-LYS-164:MSM-pdb4qny-B-MET-107
     RDKit          3D

 20 18  0  0  0  0  0  0  0  0999 V2000
    1.2467    0.8702    0.0000 C   0  0  0  0  0  0  0  0  0  0  0  0
    1.2337    1.4437    0.8123 H   0  0  0  0  0  0  0  0  0  0  0  0
    1.2416    1.4309   -0.8204 H   0  0  0  0  0  0  0  0  0  0  0  0
    2.1528    0.2643    0.0100 H   0  0  0  0  0  0  0  0  0  0  0  0
    0.0000    0.0000    0.0000 C   0  0  0  0  0  0  0  0  0  0  0  0
    0.0109   -0.5837   -0.8162 H   0  0  0  0  0  0  0  0  0  0  0  0
    0.0104   -0.5841    0.8158 H   0  0  0  0  0  0  0  0  0  0  0  0
   -1.2467    0.8166   -0.0000 N   0  0  0  0  0  4  0  0  0  0  0  0
   -2.0353    0.2159   -0.1266 H   0  0  0  0  0  0  0  0  0  0  0  0
   -1.3275    1.2960    0.8726 H   0  0  0  0  0  0  0  0  0  0  0  0
   -1.2071    1.4803   -0.7454 H   0  0  0  0  0  0  0  0  0  0  0  0
    1.7292    3.1931    3.3899 C   0  0  0  0  0  0  0  0  0  0  0  0
    1.1311    3.8341    2.8497 H   0  0  0  0  0  0  0  0  0  0  0  0
    2.6093    3.1409    2.8587 H   0  0  0  0  0  0  0  0  0  0  0  0
    1.9390    3.6546    4.3548 H   0  0  0  0  0  0  0  0  0  0  0  0
    0.9638    1.5611    3.5177 S   0  0  0  0  0  0  0  0  0  0  0  0
    2.3410    0.5822    4.1133 C   0  0  0  0  0  0  0  0  0  0  0  0
    2.2559   -0.3566    3.7760 H   0  0  0  0  0  0  0  0  0  0  0  0
    3.2003    0.9763    3.7844 H   0  0  0  0  0  0  0  0  0  0  0  0
    2.3405    0.5767    5.1139 H   0  0  0  0  0  0  0  0  0  0  0  0
  1  5  1  0
  5  8  1  0
  1  2  1  0
  1  3  1  0
  1  4  1  0
  5  6  1  0
  5  7  1  0
  8  9  1  0
  8 10  1  0
  8 11  1  0
 12 16  1  0
 16 17  1  0
 12 13  1  0
 12 14  1  0
 12 15  1  0
 17 18  1  0
 17 19  1  0
 17 20  1  0
M  CHG  1   8   1
M  END
>  <PDB_ID>  (1321) 
pdb4qny

>  <RESIDUE_NAME>  (1321) 
LYS   MET

>  <FRAG_NAME>  (1321) 
ETAM   MSM

>  <FRAG_ATOM_NUM>  (1321) 
fragi: 11  fragj: 9

>  <atom.prop.CHAIN_ID>  (1321) 
A A A A A A A A A A A Z Z Z Z Z Z Z Z Z

>  <atom.prop.IS_HEAVY_ATOM>  (1321) 
1 0 0 0 1 0 0 1 0 0 0 1 0 0 0 1 1 0 0 0

>  <DIFUSE_FUNC_ATOM>  (1321) 
n/a

>  <FINAL_SINGLE_POINT_ENERGY>  (1321) 
0

>  <NONCOV_INTER_ENERGY_QM>  (1321) 
0

>  <FF_Energy>  (1321) 
-3.97

>  <QM_Energy>  (1321) 
-9.05

>  <source>  (1321) 
ETAM_MSM

>  <Index>  (1321) 
8240

$$$$
ETAM-pdb4qpm-B-LYS-851:MSM-pdb4qpm-B-MET-838
     RDKit          3D

 20 18  0  0  0  0  0  0  0  0999 V2000
    1.2485    0.8694    0.0000 C   0  0  0  0  0  0  0  0  0  0  0  0
    1.1334    1.5638   -0.6682 H   0  0  0  0  0  0  0  0  0  0  0  0
    2.0066    0.3081   -0.2290 H   0  0  0  0  0  0  0  0  0  0  0  0
    1.4259    1.3322    0.9708 H   0  0  0  0  0  0  0  0  0  0  0  0
    0.0000    0.0000    0.0000 C   0  0  0  0  0  0  0  0  0  0  0  0
   -0.0023   -0.5558   -0.7951 H   0  0  0  0  0  0  0  0  0  0  0  0
   -0.0016   -0.5551    0.7961 H   0  0  0  0  0  0  0  0  0  0  0  0
   -1.2485    0.8133   -0.0000 N   0  0  0  0  0  4  0  0  0  0  0  0
   -1.9607    0.2791    0.0011 H   0  0  0  0  0  0  0  0  0  0  0  0
   -1.2743    1.3304    0.7243 H   0  0  0  0  0  0  0  0  0  0  0  0
   -1.2751    1.3305   -0.7243 H   0  0  0  0  0  0  0  0  0  0  0  0
   -1.8428    2.4844    4.0939 C   0  0  0  0  0  0  0  0  0  0  0  0
   -1.6675    2.9063    4.9493 H   0  0  0  0  0  0  0  0  0  0  0  0
   -1.2989    1.6868    3.9999 H   0  0  0  0  0  0  0  0  0  0  0  0
   -2.8950    2.2042    4.0437 H   0  0  0  0  0  0  0  0  0  0  0  0
   -1.3667    3.6418    2.7922 S   0  0  0  0  0  0  0  0  0  0  0  0
    0.2696    4.1274    3.3332 C   0  0  0  0  0  0  0  0  0  0  0  0
    0.6355    4.7630    2.6993 H   0  0  0  0  0  0  0  0  0  0  0  0
    0.2033    4.5356    4.2107 H   0  0  0  0  0  0  0  0  0  0  0  0
    0.8341    3.3396    3.3766 H   0  0  0  0  0  0  0  0  0  0  0  0
  1  5  1  0
  5  8  1  0
  1  2  1  0
  1  3  1  0
  1  4  1  0
  5  6  1  0
  5  7  1  0
  8  9  1  0
  8 10  1  0
  8 11  1  0
 12 16  1  0
 16 17  1  0
 12 13  1  0
 12 14  1  0
 12 15  1  0
 17 18  1  0
 17 19  1  0
 17 20  1  0
M  CHG  1   8   1
M  END
>  <PDB_ID>  (1322) 
pdb4qpm

>  <RESIDUE_NAME>  (1322) 
LYS   MET

>  <FRAG_NAME>  (1322) 
ETAM   MSM

>  <FRAG_ATOM_NUM>  (1322) 
fragi: 11  fragj: 9

>  <atom.prop.CHAIN_ID>  (1322) 
A A A A A A A A A A A Z Z Z Z Z Z Z Z Z

>  <atom.prop.IS_HEAVY_ATOM>  (1322) 
1 0 0 0 1 0 0 1 0 0 0 1 0 0 0 1 1 0 0 0

>  <DIFUSE_FUNC_ATOM>  (1322) 
n/a

>  <FINAL_SINGLE_POINT_ENERGY>  (1322) 
0

>  <NONCOV_INTER_ENERGY_QM>  (1322) 
0

>  <FF_Energy>  (1322) 
-3.82

>  <QM_Energy>  (1322) 
-10.5

>  <source>  (1322) 
ETAM_MSM

>  <Index>  (1322) 
8241

$$$$
ETAM-pdb3sv0-A-LYS-38:MSM-pdb3sv0-A-MET-82
     RDKit          3D

 20 18  0  0  0  0  0  0  0  0999 V2000
    1.3878    0.8254   -0.0000 C   0  0  0  0  0  0  0  0  0  0  0  0
    1.3204    1.4846    0.7165 H   0  0  0  0  0  0  0  0  0  0  0  0
    1.4769    1.2216   -0.8877 H   0  0  0  0  0  0  0  0  0  0  0  0
    2.2206    0.1494    0.1933 H   0  0  0  0  0  0  0  0  0  0  0  0
    0.0000    0.0000    0.0000 C   0  0  0  0  0  0  0  0  0  0  0  0
    0.0214   -0.6250   -0.8160 H   0  0  0  0  0  0  0  0  0  0  0  0
    0.0201   -0.6250    0.8164 H   0  0  0  0  0  0  0  0  0  0  0  0
   -1.3878    0.7372    0.0000 N   0  0  0  0  0  4  0  0  0  0  0  0
   -2.0114    0.1815    0.5259 H   0  0  0  0  0  0  0  0  0  0  0  0
   -1.2470    1.6215    0.4149 H   0  0  0  0  0  0  0  0  0  0  0  0
   -1.6743    0.8170   -0.9411 H   0  0  0  0  0  0  0  0  0  0  0  0
   -0.3043   -0.9932    3.7947 C   0  0  0  0  0  0  0  0  0  0  0  0
    0.6598   -1.1358    3.5541 H   0  0  0  0  0  0  0  0  0  0  0  0
   -0.8491   -1.7410    3.4047 H   0  0  0  0  0  0  0  0  0  0  0  0
   -0.4131   -0.9884    4.8792 H   0  0  0  0  0  0  0  0  0  0  0  0
   -0.8867    0.6269    3.1142 S   0  0  0  0  0  0  0  0  0  0  0  0
   -0.9798    1.5283    4.6881 C   0  0  0  0  0  0  0  0  0  0  0  0
   -1.8772    1.3755    5.0957 H   0  0  0  0  0  0  0  0  0  0  0  0
   -0.2662    1.1901    5.2974 H   0  0  0  0  0  0  0  0  0  0  0  0
   -0.8463    2.5005    4.5125 H   0  0  0  0  0  0  0  0  0  0  0  0
  1  5  1  0
  5  8  1  0
  1  2  1  0
  1  3  1  0
  1  4  1  0
  5  6  1  0
  5  7  1  0
  8  9  1  0
  8 10  1  0
  8 11  1  0
 12 16  1  0
 16 17  1  0
 12 13  1  0
 12 14  1  0
 12 15  1  0
 17 18  1  0
 17 19  1  0
 17 20  1  0
M  CHG  1   8   1
M  END
>  <PDB_ID>  (1323) 
pdb3sv0

>  <RESIDUE_NAME>  (1323) 
LYS   MET

>  <FRAG_NAME>  (1323) 
ETAM   MSM

>  <FRAG_ATOM_NUM>  (1323) 
fragi: 11  fragj: 9

>  <atom.prop.CHAIN_ID>  (1323) 
A A A A A A A A A A A Z Z Z Z Z Z Z Z Z

>  <atom.prop.IS_HEAVY_ATOM>  (1323) 
1 0 0 0 1 0 0 1 0 0 0 1 0 0 0 1 1 0 0 0

>  <DIFUSE_FUNC_ATOM>  (1323) 
n/a

>  <FINAL_SINGLE_POINT_ENERGY>  (1323) 
0

>  <NONCOV_INTER_ENERGY_QM>  (1323) 
0

>  <FF_Energy>  (1323) 
-4.1

>  <QM_Energy>  (1323) 
-13.27

>  <source>  (1323) 
ETAM_MSM

>  <Index>  (1323) 
8242

$$$$
ETAM-pdb3sui-B-LYS-788:MSM-pdb3sui-A-MET-76
     RDKit          3D

 20 18  0  0  0  0  0  0  0  0999 V2000
    1.2537    0.8603    0.0000 C   0  0  0  0  0  0  0  0  0  0  0  0
    1.1541    1.5686    0.6877 H   0  0  0  0  0  0  0  0  0  0  0  0
    1.3685    1.2564   -0.9015 H   0  0  0  0  0  0  0  0  0  0  0  0
    2.1342    0.2629    0.2362 H   0  0  0  0  0  0  0  0  0  0  0  0
    0.0000    0.0000    0.0000 C   0  0  0  0  0  0  0  0  0  0  0  0
    0.0046   -0.5859   -0.8163 H   0  0  0  0  0  0  0  0  0  0  0  0
    0.0041   -0.5861    0.8164 H   0  0  0  0  0  0  0  0  0  0  0  0
   -1.2537    0.8209    0.0000 N   0  0  0  0  0  4  0  0  0  0  0  0
   -1.6154    0.8641   -0.9285 H   0  0  0  0  0  0  0  0  0  0  0  0
   -1.9225    0.3944    0.6050 H   0  0  0  0  0  0  0  0  0  0  0  0
   -1.0416    1.7409    0.3245 H   0  0  0  0  0  0  0  0  0  0  0  0
   -1.1410   -2.3778   -2.5917 C   0  0  0  0  0  0  0  0  0  0  0  0
   -0.7901   -2.2288   -1.6543 H   0  0  0  0  0  0  0  0  0  0  0  0
   -0.4829   -2.9776   -3.0722 H   0  0  0  0  0  0  0  0  0  0  0  0
   -2.1110   -2.8723   -2.5406 H   0  0  0  0  0  0  0  0  0  0  0  0
   -1.3040   -0.7932   -3.4635 S   0  0  0  0  0  0  0  0  0  0  0  0
    0.3760   -0.6058   -4.1138 C   0  0  0  0  0  0  0  0  0  0  0  0
    1.0189   -0.5760   -3.3516 H   0  0  0  0  0  0  0  0  0  0  0  0
    0.5853   -1.3828   -4.7043 H   0  0  0  0  0  0  0  0  0  0  0  0
    0.4298    0.2418   -4.6368 H   0  0  0  0  0  0  0  0  0  0  0  0
  1  5  1  0
  5  8  1  0
  1  2  1  0
  1  3  1  0
  1  4  1  0
  5  6  1  0
  5  7  1  0
  8  9  1  0
  8 10  1  0
  8 11  1  0
 12 16  1  0
 16 17  1  0
 12 13  1  0
 12 14  1  0
 12 15  1  0
 17 18  1  0
 17 19  1  0
 17 20  1  0
M  CHG  1   8   1
M  END
>  <PDB_ID>  (1324) 
pdb3sui

>  <RESIDUE_NAME>  (1324) 
LYS   MET

>  <FRAG_NAME>  (1324) 
ETAM   MSM

>  <FRAG_ATOM_NUM>  (1324) 
fragi: 11  fragj: 9

>  <atom.prop.CHAIN_ID>  (1324) 
A A A A A A A A A A A Z Z Z Z Z Z Z Z Z

>  <atom.prop.IS_HEAVY_ATOM>  (1324) 
1 0 0 0 1 0 0 1 0 0 0 1 0 0 0 1 1 0 0 0

>  <DIFUSE_FUNC_ATOM>  (1324) 
n/a

>  <FINAL_SINGLE_POINT_ENERGY>  (1324) 
0

>  <NONCOV_INTER_ENERGY_QM>  (1324) 
0

>  <FF_Energy>  (1324) 
-3.11

>  <QM_Energy>  (1324) 
-10.64

>  <source>  (1324) 
ETAM_MSM

>  <Index>  (1324) 
8249

$$$$
ETAM-pdb3sy8-A-LYS-163:MSM-pdb3sy8-A-MET-263
     RDKit          3D

 20 18  0  0  0  0  0  0  0  0999 V2000
    1.2343    0.8530    0.0000 C   0  0  0  0  0  0  0  0  0  0  0  0
    1.0412    1.7087    0.4644 H   0  0  0  0  0  0  0  0  0  0  0  0
    1.5182    1.0180   -0.9364 H   0  0  0  0  0  0  0  0  0  0  0  0
    2.0460    0.3500    0.5256 H   0  0  0  0  0  0  0  0  0  0  0  0
    0.0000    0.0000    0.0000 C   0  0  0  0  0  0  0  0  0  0  0  0
    0.0074   -0.5919   -0.8163 H   0  0  0  0  0  0  0  0  0  0  0  0
    0.0068   -0.5929    0.8162 H   0  0  0  0  0  0  0  0  0  0  0  0
   -1.2343    0.8079   -0.0000 N   0  0  0  0  0  4  0  0  0  0  0  0
   -1.5425    0.9550   -0.9422 H   0  0  0  0  0  0  0  0  0  0  0  0
   -1.9511    0.3298    0.5100 H   0  0  0  0  0  0  0  0  0  0  0  0
   -1.0584    1.6944    0.4317 H   0  0  0  0  0  0  0  0  0  0  0  0
   -5.1879    3.5526   -1.6498 C   0  0  0  0  0  0  0  0  0  0  0  0
   -5.6583    3.1392   -0.8238 H   0  0  0  0  0  0  0  0  0  0  0  0
   -5.9257    3.5615   -2.3784 H   0  0  0  0  0  0  0  0  0  0  0  0
   -4.9518    4.5890   -1.4083 H   0  0  0  0  0  0  0  0  0  0  0  0
   -3.7851    2.5325   -2.1679 S   0  0  0  0  0  0  0  0  0  0  0  0
   -3.5011    3.0815   -3.8723 C   0  0  0  0  0  0  0  0  0  0  0  0
   -2.5343    2.9719   -4.0923 H   0  0  0  0  0  0  0  0  0  0  0  0
   -4.0554    2.5266   -4.4886 H   0  0  0  0  0  0  0  0  0  0  0  0
   -3.7615    4.0416   -3.9522 H   0  0  0  0  0  0  0  0  0  0  0  0
  1  5  1  0
  5  8  1  0
  1  2  1  0
  1  3  1  0
  1  4  1  0
  5  6  1  0
  5  7  1  0
  8  9  1  0
  8 10  1  0
  8 11  1  0
 12 16  1  0
 16 17  1  0
 12 13  1  0
 12 14  1  0
 12 15  1  0
 17 18  1  0
 17 19  1  0
 17 20  1  0
M  CHG  1   8   1
M  END
>  <PDB_ID>  (1325) 
pdb3sy8

>  <RESIDUE_NAME>  (1325) 
LYS   MET

>  <FRAG_NAME>  (1325) 
ETAM   MSM

>  <FRAG_ATOM_NUM>  (1325) 
fragi: 11  fragj: 9

>  <atom.prop.CHAIN_ID>  (1325) 
A A A A A A A A A A A Z Z Z Z Z Z Z Z Z

>  <atom.prop.IS_HEAVY_ATOM>  (1325) 
1 0 0 0 1 0 0 1 0 0 0 1 0 0 0 1 1 0 0 0

>  <DIFUSE_FUNC_ATOM>  (1325) 
n/a

>  <FINAL_SINGLE_POINT_ENERGY>  (1325) 
0

>  <NONCOV_INTER_ENERGY_QM>  (1325) 
0

>  <FF_Energy>  (1325) 
-4.82

>  <QM_Energy>  (1325) 
-11.25

>  <source>  (1325) 
ETAM_MSM

>  <Index>  (1325) 
8269

$$$$
ETAM-pdb4r29-A-LYS-171:MSM-pdb4r29-A-MET-175
     RDKit          3D

 20 18  0  0  0  0  0  0  0  0999 V2000
    1.2850    0.8573   -0.0000 C   0  0  0  0  0  0  0  0  0  0  0  0
    2.0422    0.2724   -0.2830 H   0  0  0  0  0  0  0  0  0  0  0  0
    1.4364    1.1798    0.9319 H   0  0  0  0  0  0  0  0  0  0  0  0
    1.2200    1.7125   -0.6728 H   0  0  0  0  0  0  0  0  0  0  0  0
    0.0000    0.0000    0.0000 C   0  0  0  0  0  0  0  0  0  0  0  0
    0.0154   -0.5967   -0.8165 H   0  0  0  0  0  0  0  0  0  0  0  0
    0.0146   -0.5968    0.8164 H   0  0  0  0  0  0  0  0  0  0  0  0
   -1.2850    0.7897    0.0000 N   0  0  0  0  0  4  0  0  0  0  0  0
   -1.1731    1.5868    0.5875 H   0  0  0  0  0  0  0  0  0  0  0  0
   -1.4852    1.0776   -0.9326 H   0  0  0  0  0  0  0  0  0  0  0  0
   -2.0187    0.2107    0.3450 H   0  0  0  0  0  0  0  0  0  0  0  0
   -1.1732    5.0460    2.5302 C   0  0  0  0  0  0  0  0  0  0  0  0
   -1.9619    5.3670    3.0864 H   0  0  0  0  0  0  0  0  0  0  0  0
   -1.3200    5.3921    1.5858 H   0  0  0  0  0  0  0  0  0  0  0  0
   -0.2614    5.4913    2.9283 H   0  0  0  0  0  0  0  0  0  0  0  0
   -1.0396    3.2787    2.5577 S   0  0  0  0  0  0  0  0  0  0  0  0
   -1.5729    3.0378    4.2499 C   0  0  0  0  0  0  0  0  0  0  0  0
   -2.3645    3.6217    4.4391 H   0  0  0  0  0  0  0  0  0  0  0  0
   -1.8270    2.0800    4.3893 H   0  0  0  0  0  0  0  0  0  0  0  0
   -0.8281    3.2768    4.8745 H   0  0  0  0  0  0  0  0  0  0  0  0
  1  5  1  0
  5  8  1  0
  1  2  1  0
  1  3  1  0
  1  4  1  0
  5  6  1  0
  5  7  1  0
  8  9  1  0
  8 10  1  0
  8 11  1  0
 12 16  1  0
 16 17  1  0
 12 13  1  0
 12 14  1  0
 12 15  1  0
 17 18  1  0
 17 19  1  0
 17 20  1  0
M  CHG  1   8   1
M  END
>  <PDB_ID>  (1326) 
pdb4r29

>  <RESIDUE_NAME>  (1326) 
LYS   MET

>  <FRAG_NAME>  (1326) 
ETAM   MSM

>  <FRAG_ATOM_NUM>  (1326) 
fragi: 11  fragj: 9

>  <atom.prop.CHAIN_ID>  (1326) 
A A A A A A A A A A A Z Z Z Z Z Z Z Z Z

>  <atom.prop.IS_HEAVY_ATOM>  (1326) 
1 0 0 0 1 0 0 1 0 0 0 1 0 0 0 1 1 0 0 0

>  <DIFUSE_FUNC_ATOM>  (1326) 
n/a

>  <FINAL_SINGLE_POINT_ENERGY>  (1326) 
0

>  <NONCOV_INTER_ENERGY_QM>  (1326) 
0

>  <FF_Energy>  (1326) 
-5.8

>  <QM_Energy>  (1326) 
-14.05

>  <source>  (1326) 
ETAM_MSM

>  <Index>  (1326) 
8276

$$$$
ETAM-pdb4r2b-B-LYS-30:MSM-pdb4r2b-B-MET-27
     RDKit          3D

 20 18  0  0  0  0  0  0  0  0999 V2000
    1.2323    0.8746    0.0000 C   0  0  0  0  0  0  0  0  0  0  0  0
    1.2140    1.4550    0.8164 H   0  0  0  0  0  0  0  0  0  0  0  0
    1.2132    1.4550   -0.8164 H   0  0  0  0  0  0  0  0  0  0  0  0
    2.1575    0.2984    0.0002 H   0  0  0  0  0  0  0  0  0  0  0  0
    0.0000    0.0000    0.0000 C   0  0  0  0  0  0  0  0  0  0  0  0
    0.0082   -0.5788   -0.8162 H   0  0  0  0  0  0  0  0  0  0  0  0
    0.0080   -0.5786    0.8164 H   0  0  0  0  0  0  0  0  0  0  0  0
   -1.2323    0.8274    0.0000 N   0  0  0  0  0  4  0  0  0  0  0  0
   -1.1544    1.5436   -0.6947 H   0  0  0  0  0  0  0  0  0  0  0  0
   -2.0226    0.2491   -0.2059 H   0  0  0  0  0  0  0  0  0  0  0  0
   -1.3531    1.2470    0.8998 H   0  0  0  0  0  0  0  0  0  0  0  0
   -1.1456   -2.0335    3.8172 C   0  0  0  0  0  0  0  0  0  0  0  0
   -1.5339   -2.3686    4.7065 H   0  0  0  0  0  0  0  0  0  0  0  0
   -0.1371   -1.9368    3.9801 H   0  0  0  0  0  0  0  0  0  0  0  0
   -1.3007   -2.8043    3.0623 H   0  0  0  0  0  0  0  0  0  0  0  0
   -1.8730   -0.4332    3.3669 S   0  0  0  0  0  0  0  0  0  0  0  0
   -3.5947   -0.9197    3.2087 C   0  0  0  0  0  0  0  0  0  0  0  0
   -3.8237   -1.5742    3.9294 H   0  0  0  0  0  0  0  0  0  0  0  0
   -4.1783   -0.1123    3.2941 H   0  0  0  0  0  0  0  0  0  0  0  0
   -3.7402   -1.3437    2.3144 H   0  0  0  0  0  0  0  0  0  0  0  0
  1  5  1  0
  5  8  1  0
  1  2  1  0
  1  3  1  0
  1  4  1  0
  5  6  1  0
  5  7  1  0
  8  9  1  0
  8 10  1  0
  8 11  1  0
 12 16  1  0
 16 17  1  0
 12 13  1  0
 12 14  1  0
 12 15  1  0
 17 18  1  0
 17 19  1  0
 17 20  1  0
M  CHG  1   8   1
M  END
>  <PDB_ID>  (1327) 
pdb4r2b

>  <RESIDUE_NAME>  (1327) 
LYS   MET

>  <FRAG_NAME>  (1327) 
ETAM   MSM

>  <FRAG_ATOM_NUM>  (1327) 
fragi: 11  fragj: 9

>  <atom.prop.CHAIN_ID>  (1327) 
A A A A A A A A A A A Z Z Z Z Z Z Z Z Z

>  <atom.prop.IS_HEAVY_ATOM>  (1327) 
1 0 0 0 1 0 0 1 0 0 0 1 0 0 0 1 1 0 0 0

>  <DIFUSE_FUNC_ATOM>  (1327) 
n/a

>  <FINAL_SINGLE_POINT_ENERGY>  (1327) 
0

>  <NONCOV_INTER_ENERGY_QM>  (1327) 
0

>  <FF_Energy>  (1327) 
-4.95

>  <QM_Energy>  (1327) 
-12.07

>  <source>  (1327) 
ETAM_MSM

>  <Index>  (1327) 
8278

$$$$
ETAM-pdb4r2y-A-LYS-38:MSM-pdb4r2y-A-MET-28
     RDKit          3D

 20 18  0  0  0  0  0  0  0  0999 V2000
    1.2663    0.8674   -0.0000 C   0  0  0  0  0  0  0  0  0  0  0  0
    1.1488    1.5908    0.6685 H   0  0  0  0  0  0  0  0  0  0  0  0
    1.3860    1.2450   -0.9096 H   0  0  0  0  0  0  0  0  0  0  0  0
    2.1484    0.2829    0.2615 H   0  0  0  0  0  0  0  0  0  0  0  0
    0.0000    0.0000    0.0000 C   0  0  0  0  0  0  0  0  0  0  0  0
    0.0159   -0.5907   -0.8164 H   0  0  0  0  0  0  0  0  0  0  0  0
    0.0155   -0.5909    0.8167 H   0  0  0  0  0  0  0  0  0  0  0  0
   -1.2663    0.7982   -0.0000 N   0  0  0  0  0  4  0  0  0  0  0  0
   -1.1096    1.6610   -0.4775 H   0  0  0  0  0  0  0  0  0  0  0  0
   -1.9805    0.2789   -0.4655 H   0  0  0  0  0  0  0  0  0  0  0  0
   -1.5399    0.9781    0.9426 H   0  0  0  0  0  0  0  0  0  0  0  0
   -4.9373    2.0567    0.3111 C   0  0  0  0  0  0  0  0  0  0  0  0
   -5.7672    2.6186    0.5016 H   0  0  0  0  0  0  0  0  0  0  0  0
   -4.9592    1.2812    0.9746 H   0  0  0  0  0  0  0  0  0  0  0  0
   -5.0211    1.6506   -0.6970 H   0  0  0  0  0  0  0  0  0  0  0  0
   -3.4545    3.0118    0.4805 S   0  0  0  0  0  0  0  0  0  0  0  0
   -3.8807    4.2865   -0.6680 C   0  0  0  0  0  0  0  0  0  0  0  0
   -4.5854    4.8858   -0.2757 H   0  0  0  0  0  0  0  0  0  0  0  0
   -3.0721    4.8404   -0.8881 H   0  0  0  0  0  0  0  0  0  0  0  0
   -4.2364    3.8838   -1.5176 H   0  0  0  0  0  0  0  0  0  0  0  0
  1  5  1  0
  5  8  1  0
  1  2  1  0
  1  3  1  0
  1  4  1  0
  5  6  1  0
  5  7  1  0
  8  9  1  0
  8 10  1  0
  8 11  1  0
 12 16  1  0
 16 17  1  0
 12 13  1  0
 12 14  1  0
 12 15  1  0
 17 18  1  0
 17 19  1  0
 17 20  1  0
M  CHG  1   8   1
M  END
>  <PDB_ID>  (1328) 
pdb4r2y

>  <RESIDUE_NAME>  (1328) 
LYS   MET

>  <FRAG_NAME>  (1328) 
ETAM   MSM

>  <FRAG_ATOM_NUM>  (1328) 
fragi: 11  fragj: 9

>  <atom.prop.CHAIN_ID>  (1328) 
A A A A A A A A A A A Z Z Z Z Z Z Z Z Z

>  <atom.prop.IS_HEAVY_ATOM>  (1328) 
1 0 0 0 1 0 0 1 0 0 0 1 0 0 0 1 1 0 0 0

>  <DIFUSE_FUNC_ATOM>  (1328) 
n/a

>  <FINAL_SINGLE_POINT_ENERGY>  (1328) 
0

>  <NONCOV_INTER_ENERGY_QM>  (1328) 
0

>  <FF_Energy>  (1328) 
-4.29

>  <QM_Energy>  (1328) 
-12.12

>  <source>  (1328) 
ETAM_MSM

>  <Index>  (1328) 
8283

$$$$
ETAM-pdb4r43-A-LYS-141:MSM-pdb4r43-A-MET-239
     RDKit          3D

 20 18  0  0  0  0  0  0  0  0999 V2000
    1.2474    0.9188   -0.0000 C   0  0  0  0  0  0  0  0  0  0  0  0
    1.1068    1.6263    0.6959 H   0  0  0  0  0  0  0  0  0  0  0  0
    1.3088    1.3511   -0.9014 H   0  0  0  0  0  0  0  0  0  0  0  0
    2.1836    0.4009    0.2085 H   0  0  0  0  0  0  0  0  0  0  0  0
    0.0000    0.0000    0.0000 C   0  0  0  0  0  0  0  0  0  0  0  0
    0.0313   -0.5685   -0.8163 H   0  0  0  0  0  0  0  0  0  0  0  0
    0.0316   -0.5692    0.8163 H   0  0  0  0  0  0  0  0  0  0  0  0
   -1.2474    0.8116   -0.0000 N   0  0  0  0  0  4  0  0  0  0  0  0
   -1.4659    1.0841   -0.9366 H   0  0  0  0  0  0  0  0  0  0  0  0
   -1.9978    0.2668    0.3725 H   0  0  0  0  0  0  0  0  0  0  0  0
   -1.1125    1.6259    0.5637 H   0  0  0  0  0  0  0  0  0  0  0  0
   -2.0663    3.2136    3.5297 C   0  0  0  0  0  0  0  0  0  0  0  0
   -2.6501    3.4644    2.7538 H   0  0  0  0  0  0  0  0  0  0  0  0
   -2.1557    3.9136    4.2433 H   0  0  0  0  0  0  0  0  0  0  0  0
   -2.3777    2.2461    3.9237 H   0  0  0  0  0  0  0  0  0  0  0  0
   -0.3289    3.0772    2.9939 S   0  0  0  0  0  0  0  0  0  0  0  0
   -0.1283    4.6978    2.2481 C   0  0  0  0  0  0  0  0  0  0  0  0
    0.5382    5.2266    2.7740 H   0  0  0  0  0  0  0  0  0  0  0  0
    0.1956    4.5941    1.3068 H   0  0  0  0  0  0  0  0  0  0  0  0
   -1.0072    5.1757    2.2474 H   0  0  0  0  0  0  0  0  0  0  0  0
  1  5  1  0
  5  8  1  0
  1  2  1  0
  1  3  1  0
  1  4  1  0
  5  6  1  0
  5  7  1  0
  8  9  1  0
  8 10  1  0
  8 11  1  0
 12 16  1  0
 16 17  1  0
 12 13  1  0
 12 14  1  0
 12 15  1  0
 17 18  1  0
 17 19  1  0
 17 20  1  0
M  CHG  1   8   1
M  END
>  <PDB_ID>  (1329) 
pdb4r43

>  <RESIDUE_NAME>  (1329) 
LYS   MET

>  <FRAG_NAME>  (1329) 
ETAM   MSM

>  <FRAG_ATOM_NUM>  (1329) 
fragi: 11  fragj: 9

>  <atom.prop.CHAIN_ID>  (1329) 
A A A A A A A A A A A Z Z Z Z Z Z Z Z Z

>  <atom.prop.IS_HEAVY_ATOM>  (1329) 
1 0 0 0 1 0 0 1 0 0 0 1 0 0 0 1 1 0 0 0

>  <DIFUSE_FUNC_ATOM>  (1329) 
n/a

>  <FINAL_SINGLE_POINT_ENERGY>  (1329) 
0

>  <NONCOV_INTER_ENERGY_QM>  (1329) 
0

>  <FF_Energy>  (1329) 
-4.27

>  <QM_Energy>  (1329) 
-12.02

>  <source>  (1329) 
ETAM_MSM

>  <Index>  (1329) 
8294

$$$$
ETAM-pdb3t2b-A-LYS-301:MSM-pdb3t2b-A-MET-293
     RDKit          3D

 20 18  0  0  0  0  0  0  0  0999 V2000
    1.2550    0.9209    0.0000 C   0  0  0  0  0  0  0  0  0  0  0  0
    1.1193    1.5898   -0.7232 H   0  0  0  0  0  0  0  0  0  0  0  0
    2.0361    0.3405   -0.2051 H   0  0  0  0  0  0  0  0  0  0  0  0
    1.3717    1.4089    0.9676 H   0  0  0  0  0  0  0  0  0  0  0  0
    0.0000    0.0000    0.0000 C   0  0  0  0  0  0  0  0  0  0  0  0
   -0.0016   -0.5397   -0.8161 H   0  0  0  0  0  0  0  0  0  0  0  0
   -0.0019   -0.5402    0.8166 H   0  0  0  0  0  0  0  0  0  0  0  0
   -1.2550    0.8974   -0.0000 N   0  0  0  0  0  4  0  0  0  0  0  0
   -1.1172    1.6134    0.6717 H   0  0  0  0  0  0  0  0  0  0  0  0
   -1.3566    1.2781   -0.9096 H   0  0  0  0  0  0  0  0  0  0  0  0
   -2.0336    0.3323    0.2378 H   0  0  0  0  0  0  0  0  0  0  0  0
   -1.9359    5.5222   -1.2501 C   0  0  0  0  0  0  0  0  0  0  0  0
   -1.5121    5.6641   -2.1709 H   0  0  0  0  0  0  0  0  0  0  0  0
   -2.0498    6.4572   -0.8486 H   0  0  0  0  0  0  0  0  0  0  0  0
   -2.9252    5.0873   -1.3924 H   0  0  0  0  0  0  0  0  0  0  0  0
   -0.8643    4.5011   -0.2014 S   0  0  0  0  0  0  0  0  0  0  0  0
    0.4566    4.3510   -1.2083 C   0  0  0  0  0  0  0  0  0  0  0  0
    0.7138    3.3757   -1.3844 H   0  0  0  0  0  0  0  0  0  0  0  0
    0.3044    4.7715   -2.1293 H   0  0  0  0  0  0  0  0  0  0  0  0
    1.2963    4.7984   -0.8311 H   0  0  0  0  0  0  0  0  0  0  0  0
  1  5  1  0
  5  8  1  0
  1  2  1  0
  1  3  1  0
  1  4  1  0
  5  6  1  0
  5  7  1  0
  8  9  1  0
  8 10  1  0
  8 11  1  0
 12 16  1  0
 16 17  1  0
 12 13  1  0
 12 14  1  0
 12 15  1  0
 17 18  1  0
 17 19  1  0
 17 20  1  0
M  CHG  1   8   1
M  END
>  <PDB_ID>  (1330) 
pdb3t2b

>  <RESIDUE_NAME>  (1330) 
LYS   MET

>  <FRAG_NAME>  (1330) 
ETAM   MSM

>  <FRAG_ATOM_NUM>  (1330) 
fragi: 11  fragj: 9

>  <atom.prop.CHAIN_ID>  (1330) 
A A A A A A A A A A A Z Z Z Z Z Z Z Z Z

>  <atom.prop.IS_HEAVY_ATOM>  (1330) 
1 0 0 0 1 0 0 1 0 0 0 1 0 0 0 1 1 0 0 0

>  <DIFUSE_FUNC_ATOM>  (1330) 
n/a

>  <FINAL_SINGLE_POINT_ENERGY>  (1330) 
0

>  <NONCOV_INTER_ENERGY_QM>  (1330) 
0

>  <FF_Energy>  (1330) 
-3.79

>  <QM_Energy>  (1330) 
-10.04

>  <source>  (1330) 
ETAM_MSM

>  <Index>  (1330) 
8296

$$$$
ETAM-pdb3tac-B-LYS-953:MSM-pdb3tac-B-MET-913
     RDKit          3D

 20 18  0  0  0  0  0  0  0  0999 V2000
    1.2575    0.8487   -0.0000 C   0  0  0  0  0  0  0  0  0  0  0  0
    1.1811    1.5409   -0.7071 H   0  0  0  0  0  0  0  0  0  0  0  0
    2.0424    0.2638   -0.1634 H   0  0  0  0  0  0  0  0  0  0  0  0
    1.3955    1.3506    0.9576 H   0  0  0  0  0  0  0  0  0  0  0  0
    0.0000    0.0000    0.0000 C   0  0  0  0  0  0  0  0  0  0  0  0
    0.0056   -0.5944   -0.8159 H   0  0  0  0  0  0  0  0  0  0  0  0
    0.0054   -0.5938    0.8163 H   0  0  0  0  0  0  0  0  0  0  0  0
   -1.2575    0.8065   -0.0000 N   0  0  0  0  0  4  0  0  0  0  0  0
   -2.0216    0.2244   -0.2730 H   0  0  0  0  0  0  0  0  0  0  0  0
   -1.4186    1.1652    0.9183 H   0  0  0  0  0  0  0  0  0  0  0  0
   -1.1630    1.5623   -0.6451 H   0  0  0  0  0  0  0  0  0  0  0  0
    2.4492   -4.3449   -0.2467 C   0  0  0  0  0  0  0  0  0  0  0  0
    3.0826   -4.6852    0.4780 H   0  0  0  0  0  0  0  0  0  0  0  0
    2.9708   -4.3893   -1.1238 H   0  0  0  0  0  0  0  0  0  0  0  0
    1.5852   -5.0065   -0.3080 H   0  0  0  0  0  0  0  0  0  0  0  0
    1.9387   -2.6626    0.0996 S   0  0  0  0  0  0  0  0  0  0  0  0
    3.1942   -2.1100    1.2536 C   0  0  0  0  0  0  0  0  0  0  0  0
    3.6627   -2.9034    1.6441 H   0  0  0  0  0  0  0  0  0  0  0  0
    3.8588   -1.5339    0.7754 H   0  0  0  0  0  0  0  0  0  0  0  0
    2.7653   -1.5823    1.9874 H   0  0  0  0  0  0  0  0  0  0  0  0
  1  5  1  0
  5  8  1  0
  1  2  1  0
  1  3  1  0
  1  4  1  0
  5  6  1  0
  5  7  1  0
  8  9  1  0
  8 10  1  0
  8 11  1  0
 12 16  1  0
 16 17  1  0
 12 13  1  0
 12 14  1  0
 12 15  1  0
 17 18  1  0
 17 19  1  0
 17 20  1  0
M  CHG  1   8   1
M  END
>  <PDB_ID>  (1331) 
pdb3tac

>  <RESIDUE_NAME>  (1331) 
LYS   MET

>  <FRAG_NAME>  (1331) 
ETAM   MSM

>  <FRAG_ATOM_NUM>  (1331) 
fragi: 11  fragj: 9

>  <atom.prop.CHAIN_ID>  (1331) 
A A A A A A A A A A A Z Z Z Z Z Z Z Z Z

>  <atom.prop.IS_HEAVY_ATOM>  (1331) 
1 0 0 0 1 0 0 1 0 0 0 1 0 0 0 1 1 0 0 0

>  <DIFUSE_FUNC_ATOM>  (1331) 
n/a

>  <FINAL_SINGLE_POINT_ENERGY>  (1331) 
0

>  <NONCOV_INTER_ENERGY_QM>  (1331) 
0

>  <FF_Energy>  (1331) 
-3.15

>  <QM_Energy>  (1331) 
-8.23

>  <source>  (1331) 
ETAM_MSM

>  <Index>  (1331) 
8318

$$$$
ETAM-pdb4r8k-A-LYS-331:MSM-pdb4r8k-A-MET-323
     RDKit          3D

 20 18  0  0  0  0  0  0  0  0999 V2000
    1.2084    0.8847    0.0000 C   0  0  0  0  0  0  0  0  0  0  0  0
    1.0501    1.6543    0.6305 H   0  0  0  0  0  0  0  0  0  0  0  0
    1.3411    1.2565   -0.9264 H   0  0  0  0  0  0  0  0  0  0  0  0
    2.1252    0.3778    0.3012 H   0  0  0  0  0  0  0  0  0  0  0  0
    0.0000    0.0000    0.0000 C   0  0  0  0  0  0  0  0  0  0  0  0
   -0.0120   -0.5552   -0.8156 H   0  0  0  0  0  0  0  0  0  0  0  0
   -0.0121   -0.5554    0.8165 H   0  0  0  0  0  0  0  0  0  0  0  0
   -1.2084    0.8875   -0.0000 N   0  0  0  0  0  4  0  0  0  0  0  0
   -1.2928    1.3234    0.8942 H   0  0  0  0  0  0  0  0  0  0  0  0
   -1.1022    1.5829   -0.7074 H   0  0  0  0  0  0  0  0  0  0  0  0
   -2.0188    0.3350   -0.1859 H   0  0  0  0  0  0  0  0  0  0  0  0
   -1.8431    5.3021    1.7787 C   0  0  0  0  0  0  0  0  0  0  0  0
   -2.1803    4.9505    2.6776 H   0  0  0  0  0  0  0  0  0  0  0  0
   -2.6348    5.2367    1.1356 H   0  0  0  0  0  0  0  0  0  0  0  0
   -1.5628    6.3495    1.8910 H   0  0  0  0  0  0  0  0  0  0  0  0
   -0.4623    4.2919    1.1840 S   0  0  0  0  0  0  0  0  0  0  0  0
   -0.2790    4.8892   -0.4843 C   0  0  0  0  0  0  0  0  0  0  0  0
   -1.1658    4.8734   -0.9510 H   0  0  0  0  0  0  0  0  0  0  0  0
    0.0688    5.8292   -0.4737 H   0  0  0  0  0  0  0  0  0  0  0  0
    0.3661    4.3074   -0.9854 H   0  0  0  0  0  0  0  0  0  0  0  0
  1  5  1  0
  5  8  1  0
  1  2  1  0
  1  3  1  0
  1  4  1  0
  5  6  1  0
  5  7  1  0
  8  9  1  0
  8 10  1  0
  8 11  1  0
 12 16  1  0
 16 17  1  0
 12 13  1  0
 12 14  1  0
 12 15  1  0
 17 18  1  0
 17 19  1  0
 17 20  1  0
M  CHG  1   8   1
M  END
>  <PDB_ID>  (1332) 
pdb4r8k

>  <RESIDUE_NAME>  (1332) 
LYS   MET

>  <FRAG_NAME>  (1332) 
ETAM   MSM

>  <FRAG_ATOM_NUM>  (1332) 
fragi: 11  fragj: 9

>  <atom.prop.CHAIN_ID>  (1332) 
A A A A A A A A A A A Z Z Z Z Z Z Z Z Z

>  <atom.prop.IS_HEAVY_ATOM>  (1332) 
1 0 0 0 1 0 0 1 0 0 0 1 0 0 0 1 1 0 0 0

>  <DIFUSE_FUNC_ATOM>  (1332) 
n/a

>  <FINAL_SINGLE_POINT_ENERGY>  (1332) 
0

>  <NONCOV_INTER_ENERGY_QM>  (1332) 
0

>  <FF_Energy>  (1332) 
-4.76

>  <QM_Energy>  (1332) 
-11.59

>  <source>  (1332) 
ETAM_MSM

>  <Index>  (1332) 
8326

$$$$
ETAM-pdb4r8k-A-LYS-331:MSM-pdb4r8k-A-MET-358
     RDKit          3D

 20 18  0  0  0  0  0  0  0  0999 V2000
    1.2084    0.8847    0.0000 C   0  0  0  0  0  0  0  0  0  0  0  0
    1.0501    1.6543    0.6305 H   0  0  0  0  0  0  0  0  0  0  0  0
    1.3411    1.2565   -0.9264 H   0  0  0  0  0  0  0  0  0  0  0  0
    2.1252    0.3778    0.3012 H   0  0  0  0  0  0  0  0  0  0  0  0
    0.0000    0.0000    0.0000 C   0  0  0  0  0  0  0  0  0  0  0  0
   -0.0120   -0.5552   -0.8156 H   0  0  0  0  0  0  0  0  0  0  0  0
   -0.0121   -0.5554    0.8165 H   0  0  0  0  0  0  0  0  0  0  0  0
   -1.2084    0.8875   -0.0000 N   0  0  0  0  0  4  0  0  0  0  0  0
   -1.2928    1.3234    0.8942 H   0  0  0  0  0  0  0  0  0  0  0  0
   -1.1022    1.5829   -0.7074 H   0  0  0  0  0  0  0  0  0  0  0  0
   -2.0188    0.3350   -0.1859 H   0  0  0  0  0  0  0  0  0  0  0  0
   -4.9048    3.5097    0.6503 C   0  0  0  0  0  0  0  0  0  0  0  0
   -5.8973    3.3262    0.4303 H   0  0  0  0  0  0  0  0  0  0  0  0
   -4.8767    4.5129    0.8931 H   0  0  0  0  0  0  0  0  0  0  0  0
   -4.6253    2.9268    1.5279 H   0  0  0  0  0  0  0  0  0  0  0  0
   -3.8724    3.1981   -0.8255 S   0  0  0  0  0  0  0  0  0  0  0  0
   -4.3258    1.5082   -1.1759 C   0  0  0  0  0  0  0  0  0  0  0  0
   -5.2504    1.4784   -1.5611 H   0  0  0  0  0  0  0  0  0  0  0  0
   -3.6815    1.1137   -1.8346 H   0  0  0  0  0  0  0  0  0  0  0  0
   -4.3038    0.9694   -0.3316 H   0  0  0  0  0  0  0  0  0  0  0  0
  1  5  1  0
  5  8  1  0
  1  2  1  0
  1  3  1  0
  1  4  1  0
  5  6  1  0
  5  7  1  0
  8  9  1  0
  8 10  1  0
  8 11  1  0
 12 16  1  0
 16 17  1  0
 12 13  1  0
 12 14  1  0
 12 15  1  0
 17 18  1  0
 17 19  1  0
 17 20  1  0
M  CHG  1   8   1
M  END
>  <PDB_ID>  (1333) 
pdb4r8k

>  <RESIDUE_NAME>  (1333) 
LYS   MET

>  <FRAG_NAME>  (1333) 
ETAM   MSM

>  <FRAG_ATOM_NUM>  (1333) 
fragi: 11  fragj: 9

>  <atom.prop.CHAIN_ID>  (1333) 
A A A A A A A A A A A Z Z Z Z Z Z Z Z Z

>  <atom.prop.IS_HEAVY_ATOM>  (1333) 
1 0 0 0 1 0 0 1 0 0 0 1 0 0 0 1 1 0 0 0

>  <DIFUSE_FUNC_ATOM>  (1333) 
n/a

>  <FINAL_SINGLE_POINT_ENERGY>  (1333) 
0

>  <NONCOV_INTER_ENERGY_QM>  (1333) 
0

>  <FF_Energy>  (1333) 
-2.76

>  <QM_Energy>  (1333) 
-8.03

>  <source>  (1333) 
ETAM_MSM

>  <Index>  (1333) 
8327

$$$$
ETAM-pdb3tca-A-LYS-180:MSM-pdb3tca-A-MET-196
     RDKit          3D

 20 18  0  0  0  0  0  0  0  0999 V2000
    1.2323    0.8731    0.0000 C   0  0  0  0  0  0  0  0  0  0  0  0
    1.2138    1.4534    0.8165 H   0  0  0  0  0  0  0  0  0  0  0  0
    1.2129    1.4536   -0.8171 H   0  0  0  0  0  0  0  0  0  0  0  0
    2.1581    0.2977   -0.0000 H   0  0  0  0  0  0  0  0  0  0  0  0
    0.0000    0.0000    0.0000 C   0  0  0  0  0  0  0  0  0  0  0  0
    0.0078   -0.5797   -0.8166 H   0  0  0  0  0  0  0  0  0  0  0  0
    0.0084   -0.5798    0.8160 H   0  0  0  0  0  0  0  0  0  0  0  0
   -1.2323    0.8259    0.0000 N   0  0  0  0  0  4  0  0  0  0  0  0
   -1.0757    1.6594   -0.5315 H   0  0  0  0  0  0  0  0  0  0  0  0
   -1.9826    0.3057   -0.4099 H   0  0  0  0  0  0  0  0  0  0  0  0
   -1.4707    1.0703    0.9402 H   0  0  0  0  0  0  0  0  0  0  0  0
    2.2899    4.2287   -4.7156 C   0  0  0  0  0  0  0  0  0  0  0  0
    2.6739    5.1562   -4.9181 H   0  0  0  0  0  0  0  0  0  0  0  0
    1.2777    4.3622   -4.6248 H   0  0  0  0  0  0  0  0  0  0  0  0
    2.4798    3.5809   -5.5714 H   0  0  0  0  0  0  0  0  0  0  0  0
    2.9853    3.5718   -3.1804 S   0  0  0  0  0  0  0  0  0  0  0  0
    1.8891    2.1816   -2.8825 C   0  0  0  0  0  0  0  0  0  0  0  0
    2.4154    1.4133   -2.5171 H   0  0  0  0  0  0  0  0  0  0  0  0
    1.1851    2.4465   -2.2230 H   0  0  0  0  0  0  0  0  0  0  0  0
    1.4548    1.9088   -3.7417 H   0  0  0  0  0  0  0  0  0  0  0  0
  1  5  1  0
  5  8  1  0
  1  2  1  0
  1  3  1  0
  1  4  1  0
  5  6  1  0
  5  7  1  0
  8  9  1  0
  8 10  1  0
  8 11  1  0
 12 16  1  0
 16 17  1  0
 12 13  1  0
 12 14  1  0
 12 15  1  0
 17 18  1  0
 17 19  1  0
 17 20  1  0
M  CHG  1   8   1
M  END
>  <PDB_ID>  (1334) 
pdb3tca

>  <RESIDUE_NAME>  (1334) 
LYS   MET

>  <FRAG_NAME>  (1334) 
ETAM   MSM

>  <FRAG_ATOM_NUM>  (1334) 
fragi: 11  fragj: 9

>  <atom.prop.CHAIN_ID>  (1334) 
A A A A A A A A A A A Z Z Z Z Z Z Z Z Z

>  <atom.prop.IS_HEAVY_ATOM>  (1334) 
1 0 0 0 1 0 0 1 0 0 0 1 0 0 0 1 1 0 0 0

>  <DIFUSE_FUNC_ATOM>  (1334) 
n/a

>  <FINAL_SINGLE_POINT_ENERGY>  (1334) 
0

>  <NONCOV_INTER_ENERGY_QM>  (1334) 
0

>  <FF_Energy>  (1334) 
9.35

>  <QM_Energy>  (1334) 
3.11

>  <source>  (1334) 
ETAM_MSM

>  <Index>  (1334) 
8328

$$$$
ETAM-pdb4reg-A-LYS-232:MSM-pdb4reg-A-MET-335
     RDKit          3D

 20 18  0  0  0  0  0  0  0  0999 V2000
    1.2592    0.8681    0.0000 C   0  0  0  0  0  0  0  0  0  0  0  0
    1.8980    0.4733    0.6138 H   0  0  0  0  0  0  0  0  0  0  0  0
    1.0137    1.7569    0.3015 H   0  0  0  0  0  0  0  0  0  0  0  0
    1.7109    0.9392   -0.9894 H   0  0  0  0  0  0  0  0  0  0  0  0
    0.0000    0.0000    0.0000 C   0  0  0  0  0  0  0  0  0  0  0  0
   -0.0022   -0.5551   -0.7946 H   0  0  0  0  0  0  0  0  0  0  0  0
   -0.0021   -0.5554    0.7947 H   0  0  0  0  0  0  0  0  0  0  0  0
   -1.2592    0.8180   -0.0000 N   0  0  0  0  0  4  0  0  0  0  0  0
   -1.9699    0.2816   -0.0002 H   0  0  0  0  0  0  0  0  0  0  0  0
   -1.2865    1.3344    0.7242 H   0  0  0  0  0  0  0  0  0  0  0  0
   -1.2866    1.3344   -0.7245 H   0  0  0  0  0  0  0  0  0  0  0  0
    2.6727   -3.5313    1.0885 C   0  0  0  0  0  0  0  0  0  0  0  0
    3.0038   -4.1074    1.7959 H   0  0  0  0  0  0  0  0  0  0  0  0
    3.3710   -3.4054    0.4275 H   0  0  0  0  0  0  0  0  0  0  0  0
    1.8373   -4.0378    0.6051 H   0  0  0  0  0  0  0  0  0  0  0  0
    2.3482   -1.9082    1.8339 S   0  0  0  0  0  0  0  0  0  0  0  0
    4.0106   -1.2973    2.2165 C   0  0  0  0  0  0  0  0  0  0  0  0
    3.9377   -0.4201    2.6254 H   0  0  0  0  0  0  0  0  0  0  0  0
    4.4390   -1.9138    2.8301 H   0  0  0  0  0  0  0  0  0  0  0  0
    4.5215   -1.2382    1.3938 H   0  0  0  0  0  0  0  0  0  0  0  0
  1  5  1  0
  5  8  1  0
  1  2  1  0
  1  3  1  0
  1  4  1  0
  5  6  1  0
  5  7  1  0
  8  9  1  0
  8 10  1  0
  8 11  1  0
 12 16  1  0
 16 17  1  0
 12 13  1  0
 12 14  1  0
 12 15  1  0
 17 18  1  0
 17 19  1  0
 17 20  1  0
M  CHG  1   8   1
M  END
>  <PDB_ID>  (1335) 
pdb4reg

>  <RESIDUE_NAME>  (1335) 
LYS   MET

>  <FRAG_NAME>  (1335) 
ETAM   MSM

>  <FRAG_ATOM_NUM>  (1335) 
fragi: 11  fragj: 9

>  <atom.prop.CHAIN_ID>  (1335) 
A A A A A A A A A A A Z Z Z Z Z Z Z Z Z

>  <atom.prop.IS_HEAVY_ATOM>  (1335) 
1 0 0 0 1 0 0 1 0 0 0 1 0 0 0 1 1 0 0 0

>  <DIFUSE_FUNC_ATOM>  (1335) 
n/a

>  <FINAL_SINGLE_POINT_ENERGY>  (1335) 
0

>  <NONCOV_INTER_ENERGY_QM>  (1335) 
0

>  <FF_Energy>  (1335) 
-2.93

>  <QM_Energy>  (1335) 
-8.57

>  <source>  (1335) 
ETAM_MSM

>  <Index>  (1335) 
8337

$$$$
ETAM-pdb3tdg-A-LYS-193:MSM-pdb3tdg-A-MET-158
     RDKit          3D

 20 18  0  0  0  0  0  0  0  0999 V2000
    1.2529    0.9385   -0.0000 C   0  0  0  0  0  0  0  0  0  0  0  0
    1.2448    1.4452    0.8507 H   0  0  0  0  0  0  0  0  0  0  0  0
    1.1694    1.5447   -0.7775 H   0  0  0  0  0  0  0  0  0  0  0  0
    2.1781    0.3672   -0.0774 H   0  0  0  0  0  0  0  0  0  0  0  0
    0.0000    0.0000    0.0000 C   0  0  0  0  0  0  0  0  0  0  0  0
    0.0435   -0.5660   -0.8159 H   0  0  0  0  0  0  0  0  0  0  0  0
    0.0434   -0.5654    0.8164 H   0  0  0  0  0  0  0  0  0  0  0  0
   -1.2529    0.8002   -0.0000 N   0  0  0  0  0  4  0  0  0  0  0  0
   -1.0621    1.7167    0.3512 H   0  0  0  0  0  0  0  0  0  0  0  0
   -1.6051    0.8655   -0.9335 H   0  0  0  0  0  0  0  0  0  0  0  0
   -1.9325    0.3542    0.5831 H   0  0  0  0  0  0  0  0  0  0  0  0
    1.3075    1.5855    4.6135 C   0  0  0  0  0  0  0  0  0  0  0  0
    2.1596    1.8318    4.0642 H   0  0  0  0  0  0  0  0  0  0  0  0
    1.6578    0.8636    5.2797 H   0  0  0  0  0  0  0  0  0  0  0  0
    1.0417    2.4635    5.2022 H   0  0  0  0  0  0  0  0  0  0  0  0
    0.0223    0.8940    3.5329 S   0  0  0  0  0  0  0  0  0  0  0  0
   -0.9569   -0.0468    4.7192 C   0  0  0  0  0  0  0  0  0  0  0  0
   -0.3565   -0.6624    5.2282 H   0  0  0  0  0  0  0  0  0  0  0  0
   -1.4043    0.5840    5.3515 H   0  0  0  0  0  0  0  0  0  0  0  0
   -1.6469   -0.5779    4.2300 H   0  0  0  0  0  0  0  0  0  0  0  0
  1  5  1  0
  5  8  1  0
  1  2  1  0
  1  3  1  0
  1  4  1  0
  5  6  1  0
  5  7  1  0
  8  9  1  0
  8 10  1  0
  8 11  1  0
 12 16  1  0
 16 17  1  0
 12 13  1  0
 12 14  1  0
 12 15  1  0
 17 18  1  0
 17 19  1  0
 17 20  1  0
M  CHG  1   8   1
M  END
>  <PDB_ID>  (1336) 
pdb3tdg

>  <RESIDUE_NAME>  (1336) 
LYS   MET

>  <FRAG_NAME>  (1336) 
ETAM   MSM

>  <FRAG_ATOM_NUM>  (1336) 
fragi: 11  fragj: 9

>  <atom.prop.CHAIN_ID>  (1336) 
A A A A A A A A A A A Z Z Z Z Z Z Z Z Z

>  <atom.prop.IS_HEAVY_ATOM>  (1336) 
1 0 0 0 1 0 0 1 0 0 0 1 0 0 0 1 1 0 0 0

>  <DIFUSE_FUNC_ATOM>  (1336) 
n/a

>  <FINAL_SINGLE_POINT_ENERGY>  (1336) 
0

>  <NONCOV_INTER_ENERGY_QM>  (1336) 
0

>  <FF_Energy>  (1336) 
-5.32

>  <QM_Energy>  (1336) 
-11.24

>  <source>  (1336) 
ETAM_MSM

>  <Index>  (1336) 
8344

$$$$
ETAM-pdb4r8k-B-LYS-331:MSM-pdb4r8k-B-MET-323
     RDKit          3D

 20 18  0  0  0  0  0  0  0  0999 V2000
    1.2123    0.8835    0.0000 C   0  0  0  0  0  0  0  0  0  0  0  0
    1.0544    1.6528    0.6351 H   0  0  0  0  0  0  0  0  0  0  0  0
    1.3352    1.2667   -0.9269 H   0  0  0  0  0  0  0  0  0  0  0  0
    2.1367    0.3847    0.2909 H   0  0  0  0  0  0  0  0  0  0  0  0
    0.0000    0.0000    0.0000 C   0  0  0  0  0  0  0  0  0  0  0  0
   -0.0034   -0.5637   -0.8158 H   0  0  0  0  0  0  0  0  0  0  0  0
   -0.0037   -0.5636    0.8163 H   0  0  0  0  0  0  0  0  0  0  0  0
   -1.2123    0.8648    0.0000 N   0  0  0  0  0  4  0  0  0  0  0  0
   -1.3566    1.2321   -0.9180 H   0  0  0  0  0  0  0  0  0  0  0  0
   -2.0061    0.3222    0.2725 H   0  0  0  0  0  0  0  0  0  0  0  0
   -1.0825    1.6170    0.6453 H   0  0  0  0  0  0  0  0  0  0  0  0
   -1.8307    5.2803    1.7925 C   0  0  0  0  0  0  0  0  0  0  0  0
   -2.1672    4.9449    2.6980 H   0  0  0  0  0  0  0  0  0  0  0  0
   -2.6292    5.2172    1.1561 H   0  0  0  0  0  0  0  0  0  0  0  0
   -1.5480    6.3281    1.8932 H   0  0  0  0  0  0  0  0  0  0  0  0
   -0.4637    4.2703    1.2043 S   0  0  0  0  0  0  0  0  0  0  0  0
   -0.2777    4.8859   -0.4736 C   0  0  0  0  0  0  0  0  0  0  0  0
    0.5559    5.4358   -0.5364 H   0  0  0  0  0  0  0  0  0  0  0  0
   -0.2167    4.1140   -1.1064 H   0  0  0  0  0  0  0  0  0  0  0  0
   -1.0682    5.4500   -0.7109 H   0  0  0  0  0  0  0  0  0  0  0  0
  1  5  1  0
  5  8  1  0
  1  2  1  0
  1  3  1  0
  1  4  1  0
  5  6  1  0
  5  7  1  0
  8  9  1  0
  8 10  1  0
  8 11  1  0
 12 16  1  0
 16 17  1  0
 12 13  1  0
 12 14  1  0
 12 15  1  0
 17 18  1  0
 17 19  1  0
 17 20  1  0
M  CHG  1   8   1
M  END
>  <PDB_ID>  (1337) 
pdb4r8k

>  <RESIDUE_NAME>  (1337) 
LYS   MET

>  <FRAG_NAME>  (1337) 
ETAM   MSM

>  <FRAG_ATOM_NUM>  (1337) 
fragi: 11  fragj: 9

>  <atom.prop.CHAIN_ID>  (1337) 
A A A A A A A A A A A Z Z Z Z Z Z Z Z Z

>  <atom.prop.IS_HEAVY_ATOM>  (1337) 
1 0 0 0 1 0 0 1 0 0 0 1 0 0 0 1 1 0 0 0

>  <DIFUSE_FUNC_ATOM>  (1337) 
n/a

>  <FINAL_SINGLE_POINT_ENERGY>  (1337) 
0

>  <NONCOV_INTER_ENERGY_QM>  (1337) 
0

>  <FF_Energy>  (1337) 
-4.85

>  <QM_Energy>  (1337) 
-13.23

>  <source>  (1337) 
ETAM_MSM

>  <Index>  (1337) 
8350

$$$$
ETAM-pdb4rk2-B-LYS-36:MSM-pdb4rk2-B-MET-67
     RDKit          3D

 20 18  0  0  0  0  0  0  0  0999 V2000
    1.2203    0.8881   -0.0000 C   0  0  0  0  0  0  0  0  0  0  0  0
    1.1920    1.4704    0.8020 H   0  0  0  0  0  0  0  0  0  0  0  0
    1.2204    1.4306   -0.8302 H   0  0  0  0  0  0  0  0  0  0  0  0
    2.1259    0.2823    0.0315 H   0  0  0  0  0  0  0  0  0  0  0  0
    0.0000    0.0000    0.0000 C   0  0  0  0  0  0  0  0  0  0  0  0
    0.0121   -0.5733   -0.8167 H   0  0  0  0  0  0  0  0  0  0  0  0
    0.0125   -0.5732    0.8162 H   0  0  0  0  0  0  0  0  0  0  0  0
   -1.2203    0.8308    0.0000 N   0  0  0  0  0  4  0  0  0  0  0  0
   -1.0289    1.7113    0.4374 H   0  0  0  0  0  0  0  0  0  0  0  0
   -1.5212    0.9880   -0.9423 H   0  0  0  0  0  0  0  0  0  0  0  0
   -1.9472    0.3621    0.5052 H   0  0  0  0  0  0  0  0  0  0  0  0
   -2.2204    3.2770   -1.9305 C   0  0  0  0  0  0  0  0  0  0  0  0
   -2.7612    4.0327   -2.3588 H   0  0  0  0  0  0  0  0  0  0  0  0
   -2.6429    2.4068   -2.2647 H   0  0  0  0  0  0  0  0  0  0  0  0
   -1.2005    3.3299   -2.3114 H   0  0  0  0  0  0  0  0  0  0  0  0
   -2.3082    3.3753   -0.1145 S   0  0  0  0  0  0  0  0  0  0  0  0
   -1.6958    5.0257    0.1145 C   0  0  0  0  0  0  0  0  0  0  0  0
   -1.4118    5.1578    1.0684 H   0  0  0  0  0  0  0  0  0  0  0  0
   -0.9070    5.1861   -0.4847 H   0  0  0  0  0  0  0  0  0  0  0  0
   -2.4133    5.6925   -0.1063 H   0  0  0  0  0  0  0  0  0  0  0  0
  1  5  1  0
  5  8  1  0
  1  2  1  0
  1  3  1  0
  1  4  1  0
  5  6  1  0
  5  7  1  0
  8  9  1  0
  8 10  1  0
  8 11  1  0
 12 16  1  0
 16 17  1  0
 12 13  1  0
 12 14  1  0
 12 15  1  0
 17 18  1  0
 17 19  1  0
 17 20  1  0
M  CHG  1   8   1
M  END
>  <PDB_ID>  (1338) 
pdb4rk2

>  <RESIDUE_NAME>  (1338) 
LYS   MET

>  <FRAG_NAME>  (1338) 
ETAM   MSM

>  <FRAG_ATOM_NUM>  (1338) 
fragi: 11  fragj: 9

>  <atom.prop.CHAIN_ID>  (1338) 
A A A A A A A A A A A Z Z Z Z Z Z Z Z Z

>  <atom.prop.IS_HEAVY_ATOM>  (1338) 
1 0 0 0 1 0 0 1 0 0 0 1 0 0 0 1 1 0 0 0

>  <DIFUSE_FUNC_ATOM>  (1338) 
n/a

>  <FINAL_SINGLE_POINT_ENERGY>  (1338) 
0

>  <NONCOV_INTER_ENERGY_QM>  (1338) 
0

>  <FF_Energy>  (1338) 
4.15

>  <QM_Energy>  (1338) 
-8.35

>  <source>  (1338) 
ETAM_MSM

>  <Index>  (1338) 
8364

$$$$
ETAM-pdb3tc3-B-LYS-287:MSM-pdb3tc3-B-MET-1
     RDKit          3D

 20 18  0  0  0  0  0  0  0  0999 V2000
    1.2566    0.9011   -0.0000 C   0  0  0  0  0  0  0  0  0  0  0  0
    1.1087    1.6263    0.6678 H   0  0  0  0  0  0  0  0  0  0  0  0
    1.3493    1.2900   -0.9131 H   0  0  0  0  0  0  0  0  0  0  0  0
    2.1602    0.3479    0.2561 H   0  0  0  0  0  0  0  0  0  0  0  0
    0.0000    0.0000    0.0000 C   0  0  0  0  0  0  0  0  0  0  0  0
    0.0274   -0.5768   -0.8161 H   0  0  0  0  0  0  0  0  0  0  0  0
    0.0270   -0.5781    0.8164 H   0  0  0  0  0  0  0  0  0  0  0  0
   -1.2566    0.8040   -0.0000 N   0  0  0  0  0  4  0  0  0  0  0  0
   -1.0711    1.7062    0.3868 H   0  0  0  0  0  0  0  0  0  0  0  0
   -1.5856    0.9022   -0.9380 H   0  0  0  0  0  0  0  0  0  0  0  0
   -1.9469    0.3371    0.5509 H   0  0  0  0  0  0  0  0  0  0  0  0
    2.1263    0.2978   -5.3387 C   0  0  0  0  0  0  0  0  0  0  0  0
    1.6838   -0.2894   -6.0861 H   0  0  0  0  0  0  0  0  0  0  0  0
    2.2922   -0.4005   -4.5748 H   0  0  0  0  0  0  0  0  0  0  0  0
    3.1101    0.5783   -5.7148 H   0  0  0  0  0  0  0  0  0  0  0  0
    1.0202    1.6088   -4.7966 S   0  0  0  0  0  0  0  0  0  0  0  0
    1.0533    1.4274   -3.0262 C   0  0  0  0  0  0  0  0  0  0  0  0
    1.3056    2.2990   -2.5986 H   0  0  0  0  0  0  0  0  0  0  0  0
    0.1483    1.1497   -2.6943 H   0  0  0  0  0  0  0  0  0  0  0  0
    1.7250    0.7287   -2.7667 H   0  0  0  0  0  0  0  0  0  0  0  0
  1  5  1  0
  5  8  1  0
  1  2  1  0
  1  3  1  0
  1  4  1  0
  5  6  1  0
  5  7  1  0
  8  9  1  0
  8 10  1  0
  8 11  1  0
 12 16  1  0
 16 17  1  0
 12 13  1  0
 12 14  1  0
 12 15  1  0
 17 18  1  0
 17 19  1  0
 17 20  1  0
M  CHG  1   8   1
M  END
>  <PDB_ID>  (1339) 
pdb3tc3

>  <RESIDUE_NAME>  (1339) 
LYS   MET

>  <FRAG_NAME>  (1339) 
ETAM   MSM

>  <FRAG_ATOM_NUM>  (1339) 
fragi: 11  fragj: 9

>  <atom.prop.CHAIN_ID>  (1339) 
A A A A A A A A A A A Z Z Z Z Z Z Z Z Z

>  <atom.prop.IS_HEAVY_ATOM>  (1339) 
1 0 0 0 1 0 0 1 0 0 0 1 0 0 0 1 1 0 0 0

>  <DIFUSE_FUNC_ATOM>  (1339) 
n/a

>  <FINAL_SINGLE_POINT_ENERGY>  (1339) 
0

>  <NONCOV_INTER_ENERGY_QM>  (1339) 
0

>  <FF_Energy>  (1339) 
12.85

>  <QM_Energy>  (1339) 
2.52

>  <source>  (1339) 
ETAM_MSM

>  <Index>  (1339) 
8367

$$$$
ETAM-pdb4rkf-A-LYS-71:MSM-pdb4rkf-A-MET-21
     RDKit          3D

 20 18  0  0  0  0  0  0  0  0999 V2000
    1.2364    0.8687    0.0000 C   0  0  0  0  0  0  0  0  0  0  0  0
    1.3300    1.2940    0.8975 H   0  0  0  0  0  0  0  0  0  0  0  0
    1.1352    1.5714   -0.7005 H   0  0  0  0  0  0  0  0  0  0  0  0
    2.1366    0.2910   -0.2095 H   0  0  0  0  0  0  0  0  0  0  0  0
    0.0000    0.0000    0.0000 C   0  0  0  0  0  0  0  0  0  0  0  0
    0.0035   -0.5786   -0.8163 H   0  0  0  0  0  0  0  0  0  0  0  0
    0.0033   -0.5786    0.8162 H   0  0  0  0  0  0  0  0  0  0  0  0
   -1.2364    0.8337   -0.0000 N   0  0  0  0  0  4  0  0  0  0  0  0
   -1.9807    0.3197   -0.4244 H   0  0  0  0  0  0  0  0  0  0  0  0
   -1.4805    1.0628    0.9412 H   0  0  0  0  0  0  0  0  0  0  0  0
   -1.0693    1.6715   -0.5172 H   0  0  0  0  0  0  0  0  0  0  0  0
    2.2469    2.6668   -3.4311 C   0  0  0  0  0  0  0  0  0  0  0  0
    2.3803    2.3019   -4.3821 H   0  0  0  0  0  0  0  0  0  0  0  0
    2.5661    1.9180   -2.8053 H   0  0  0  0  0  0  0  0  0  0  0  0
    2.8965    3.5318   -3.2974 H   0  0  0  0  0  0  0  0  0  0  0  0
    0.5150    3.0497   -3.1338 S   0  0  0  0  0  0  0  0  0  0  0  0
    0.2560    4.3945   -4.2906 C   0  0  0  0  0  0  0  0  0  0  0  0
    1.1410    4.7518   -4.5920 H   0  0  0  0  0  0  0  0  0  0  0  0
   -0.2550    4.0605   -5.0836 H   0  0  0  0  0  0  0  0  0  0  0  0
   -0.2626    5.1253   -3.8449 H   0  0  0  0  0  0  0  0  0  0  0  0
  1  5  1  0
  5  8  1  0
  1  2  1  0
  1  3  1  0
  1  4  1  0
  5  6  1  0
  5  7  1  0
  8  9  1  0
  8 10  1  0
  8 11  1  0
 12 16  1  0
 16 17  1  0
 12 13  1  0
 12 14  1  0
 12 15  1  0
 17 18  1  0
 17 19  1  0
 17 20  1  0
M  CHG  1   8   1
M  END
>  <PDB_ID>  (1340) 
pdb4rkf

>  <RESIDUE_NAME>  (1340) 
LYS   MET

>  <FRAG_NAME>  (1340) 
ETAM   MSM

>  <FRAG_ATOM_NUM>  (1340) 
fragi: 11  fragj: 9

>  <atom.prop.CHAIN_ID>  (1340) 
A A A A A A A A A A A Z Z Z Z Z Z Z Z Z

>  <atom.prop.IS_HEAVY_ATOM>  (1340) 
1 0 0 0 1 0 0 1 0 0 0 1 0 0 0 1 1 0 0 0

>  <DIFUSE_FUNC_ATOM>  (1340) 
n/a

>  <FINAL_SINGLE_POINT_ENERGY>  (1340) 
0

>  <NONCOV_INTER_ENERGY_QM>  (1340) 
0

>  <FF_Energy>  (1340) 
-4.51

>  <QM_Energy>  (1340) 
-9.63

>  <source>  (1340) 
ETAM_MSM

>  <Index>  (1340) 
8369

$$$$
ETAM-pdb3tjl-A-LYS-236:MSM-pdb3tjl-A-MET-178
     RDKit          3D

 20 18  0  0  0  0  0  0  0  0999 V2000
    1.2338    0.8681   -0.0000 C   0  0  0  0  0  0  0  0  0  0  0  0
    1.2488    1.4121    0.8189 H   0  0  0  0  0  0  0  0  0  0  0  0
    1.2434    1.4184   -0.8145 H   0  0  0  0  0  0  0  0  0  0  0  0
    2.1122    0.2228   -0.0046 H   0  0  0  0  0  0  0  0  0  0  0  0
    0.0000    0.0000    0.0000 C   0  0  0  0  0  0  0  0  0  0  0  0
    0.0016   -0.5774   -0.8165 H   0  0  0  0  0  0  0  0  0  0  0  0
    0.0014   -0.5783    0.8166 H   0  0  0  0  0  0  0  0  0  0  0  0
   -1.2338    0.8365    0.0000 N   0  0  0  0  0  4  0  0  0  0  0  0
   -0.9781    1.8015    0.0376 H   0  0  0  0  0  0  0  0  0  0  0  0
   -1.7529    0.6587   -0.8351 H   0  0  0  0  0  0  0  0  0  0  0  0
   -1.7903    0.6053    0.7971 H   0  0  0  0  0  0  0  0  0  0  0  0
   -0.4340    5.9816    0.7335 C   0  0  0  0  0  0  0  0  0  0  0  0
    0.3436    6.6602    0.7084 H   0  0  0  0  0  0  0  0  0  0  0  0
   -0.6096    5.8252    1.7391 H   0  0  0  0  0  0  0  0  0  0  0  0
   -1.3156    6.4525    0.2986 H   0  0  0  0  0  0  0  0  0  0  0  0
    0.0653    4.4211   -0.0687 S   0  0  0  0  0  0  0  0  0  0  0  0
    1.3506    4.9616   -1.2270 C   0  0  0  0  0  0  0  0  0  0  0  0
    2.1847    5.1621   -0.7174 H   0  0  0  0  0  0  0  0  0  0  0  0
    1.5219    4.2322   -1.8861 H   0  0  0  0  0  0  0  0  0  0  0  0
    1.0363    5.7809   -1.7015 H   0  0  0  0  0  0  0  0  0  0  0  0
  1  5  1  0
  5  8  1  0
  1  2  1  0
  1  3  1  0
  1  4  1  0
  5  6  1  0
  5  7  1  0
  8  9  1  0
  8 10  1  0
  8 11  1  0
 12 16  1  0
 16 17  1  0
 12 13  1  0
 12 14  1  0
 12 15  1  0
 17 18  1  0
 17 19  1  0
 17 20  1  0
M  CHG  1   8   1
M  END
>  <PDB_ID>  (1341) 
pdb3tjl

>  <RESIDUE_NAME>  (1341) 
LYS   MET

>  <FRAG_NAME>  (1341) 
ETAM   MSM

>  <FRAG_ATOM_NUM>  (1341) 
fragi: 11  fragj: 9

>  <atom.prop.CHAIN_ID>  (1341) 
A A A A A A A A A A A Z Z Z Z Z Z Z Z Z

>  <atom.prop.IS_HEAVY_ATOM>  (1341) 
1 0 0 0 1 0 0 1 0 0 0 1 0 0 0 1 1 0 0 0

>  <DIFUSE_FUNC_ATOM>  (1341) 
n/a

>  <FINAL_SINGLE_POINT_ENERGY>  (1341) 
0

>  <NONCOV_INTER_ENERGY_QM>  (1341) 
0

>  <FF_Energy>  (1341) 
-5.52

>  <QM_Energy>  (1341) 
-12.65

>  <source>  (1341) 
ETAM_MSM

>  <Index>  (1341) 
8376

$$$$
ETAM-pdb3ti7-A-LYS-193:MSM-pdb3ti7-A-MET-190
     RDKit          3D

 20 18  0  0  0  0  0  0  0  0999 V2000
    1.2725    0.8525   -0.0000 C   0  0  0  0  0  0  0  0  0  0  0  0
    1.1732    1.5733    0.6852 H   0  0  0  0  0  0  0  0  0  0  0  0
    1.3810    1.2622   -0.9048 H   0  0  0  0  0  0  0  0  0  0  0  0
    2.1747    0.2856    0.2295 H   0  0  0  0  0  0  0  0  0  0  0  0
    0.0000    0.0000    0.0000 C   0  0  0  0  0  0  0  0  0  0  0  0
    0.0072   -0.5928   -0.8164 H   0  0  0  0  0  0  0  0  0  0  0  0
    0.0062   -0.5933    0.8160 H   0  0  0  0  0  0  0  0  0  0  0  0
   -1.2725    0.8066   -0.0000 N   0  0  0  0  0  4  0  0  0  0  0  0
   -1.1083    1.6683   -0.4740 H   0  0  0  0  0  0  0  0  0  0  0  0
   -1.9831    0.2882   -0.4696 H   0  0  0  0  0  0  0  0  0  0  0  0
   -1.5430    0.9810    0.9429 H   0  0  0  0  0  0  0  0  0  0  0  0
   -1.3885    0.2931   -4.9380 C   0  0  0  0  0  0  0  0  0  0  0  0
   -1.0217    1.1701   -5.3256 H   0  0  0  0  0  0  0  0  0  0  0  0
   -2.2117    0.0666   -5.5074 H   0  0  0  0  0  0  0  0  0  0  0  0
   -0.6418   -0.4867   -5.0886 H   0  0  0  0  0  0  0  0  0  0  0  0
   -1.8478    0.5026   -3.2057 S   0  0  0  0  0  0  0  0  0  0  0  0
   -2.9953   -0.8613   -3.0039 C   0  0  0  0  0  0  0  0  0  0  0  0
   -3.7753   -0.5629   -2.4524 H   0  0  0  0  0  0  0  0  0  0  0  0
   -3.3181   -1.1626   -3.9017 H   0  0  0  0  0  0  0  0  0  0  0  0
   -2.5341   -1.6215   -2.5439 H   0  0  0  0  0  0  0  0  0  0  0  0
  1  5  1  0
  5  8  1  0
  1  2  1  0
  1  3  1  0
  1  4  1  0
  5  6  1  0
  5  7  1  0
  8  9  1  0
  8 10  1  0
  8 11  1  0
 12 16  1  0
 16 17  1  0
 12 13  1  0
 12 14  1  0
 12 15  1  0
 17 18  1  0
 17 19  1  0
 17 20  1  0
M  CHG  1   8   1
M  END
>  <PDB_ID>  (1342) 
pdb3ti7

>  <RESIDUE_NAME>  (1342) 
LYS   MET

>  <FRAG_NAME>  (1342) 
ETAM   MSM

>  <FRAG_ATOM_NUM>  (1342) 
fragi: 11  fragj: 9

>  <atom.prop.CHAIN_ID>  (1342) 
A A A A A A A A A A A Z Z Z Z Z Z Z Z Z

>  <atom.prop.IS_HEAVY_ATOM>  (1342) 
1 0 0 0 1 0 0 1 0 0 0 1 0 0 0 1 1 0 0 0

>  <DIFUSE_FUNC_ATOM>  (1342) 
n/a

>  <FINAL_SINGLE_POINT_ENERGY>  (1342) 
0

>  <NONCOV_INTER_ENERGY_QM>  (1342) 
0

>  <FF_Energy>  (1342) 
-5.3

>  <QM_Energy>  (1342) 
-11.61

>  <source>  (1342) 
ETAM_MSM

>  <Index>  (1342) 
8377

$$$$
ETAM-pdb3tkt-A-LYS-67:MSM-pdb3tkt-A-MET-63
     RDKit          3D

 20 18  0  0  0  0  0  0  0  0999 V2000
    1.2771    0.8297   -0.0000 C   0  0  0  0  0  0  0  0  0  0  0  0
    1.6087    0.9034    0.9296 H   0  0  0  0  0  0  0  0  0  0  0  0
    1.0773    1.7206   -0.3798 H   0  0  0  0  0  0  0  0  0  0  0  0
    2.0442    0.3517   -0.6092 H   0  0  0  0  0  0  0  0  0  0  0  0
    0.0000    0.0000    0.0000 C   0  0  0  0  0  0  0  0  0  0  0  0
   -0.0104   -0.5933   -0.8163 H   0  0  0  0  0  0  0  0  0  0  0  0
   -0.0107   -0.5940    0.8165 H   0  0  0  0  0  0  0  0  0  0  0  0
   -1.2771    0.8278    0.0000 N   0  0  0  0  0  4  0  0  0  0  0  0
   -1.0295    1.7894    0.0510 H   0  0  0  0  0  0  0  0  0  0  0  0
   -1.7730    0.6415   -0.8414 H   0  0  0  0  0  0  0  0  0  0  0  0
   -1.8214    0.5669    0.7896 H   0  0  0  0  0  0  0  0  0  0  0  0
   -0.8460   -2.6754   -3.1166 C   0  0  0  0  0  0  0  0  0  0  0  0
   -1.7969   -2.9153   -2.8187 H   0  0  0  0  0  0  0  0  0  0  0  0
   -0.2904   -2.6331   -2.2562 H   0  0  0  0  0  0  0  0  0  0  0  0
   -0.4622   -3.4820   -3.7412 H   0  0  0  0  0  0  0  0  0  0  0  0
   -0.8293   -1.0795   -3.9628 S   0  0  0  0  0  0  0  0  0  0  0  0
    0.6453   -0.3733   -3.3501 C   0  0  0  0  0  0  0  0  0  0  0  0
    1.3998   -1.0434   -3.3721 H   0  0  0  0  0  0  0  0  0  0  0  0
    0.9180    0.4241   -3.9046 H   0  0  0  0  0  0  0  0  0  0  0  0
    0.5261   -0.0664   -2.3962 H   0  0  0  0  0  0  0  0  0  0  0  0
  1  5  1  0
  5  8  1  0
  1  2  1  0
  1  3  1  0
  1  4  1  0
  5  6  1  0
  5  7  1  0
  8  9  1  0
  8 10  1  0
  8 11  1  0
 12 16  1  0
 16 17  1  0
 12 13  1  0
 12 14  1  0
 12 15  1  0
 17 18  1  0
 17 19  1  0
 17 20  1  0
M  CHG  1   8   1
M  END
>  <PDB_ID>  (1343) 
pdb3tkt

>  <RESIDUE_NAME>  (1343) 
LYS   MET

>  <FRAG_NAME>  (1343) 
ETAM   MSM

>  <FRAG_ATOM_NUM>  (1343) 
fragi: 11  fragj: 9

>  <atom.prop.CHAIN_ID>  (1343) 
A A A A A A A A A A A Z Z Z Z Z Z Z Z Z

>  <atom.prop.IS_HEAVY_ATOM>  (1343) 
1 0 0 0 1 0 0 1 0 0 0 1 0 0 0 1 1 0 0 0

>  <DIFUSE_FUNC_ATOM>  (1343) 
n/a

>  <FINAL_SINGLE_POINT_ENERGY>  (1343) 
0

>  <NONCOV_INTER_ENERGY_QM>  (1343) 
0

>  <FF_Energy>  (1343) 
4.72

>  <QM_Energy>  (1343) 
-1.91

>  <source>  (1343) 
ETAM_MSM

>  <Index>  (1343) 
8381

$$$$
ETAM-pdb4ror-A-LYS-84:MSM-pdb4ror-A-MET-87
     RDKit          3D

 20 18  0  0  0  0  0  0  0  0999 V2000
    1.2322    0.8761   -0.0000 C   0  0  0  0  0  0  0  0  0  0  0  0
    1.2148    1.4537    0.8171 H   0  0  0  0  0  0  0  0  0  0  0  0
    1.2138    1.4545   -0.8160 H   0  0  0  0  0  0  0  0  0  0  0  0
    2.1567    0.2986   -0.0001 H   0  0  0  0  0  0  0  0  0  0  0  0
    0.0000    0.0000    0.0000 C   0  0  0  0  0  0  0  0  0  0  0  0
    0.0083   -0.5778   -0.8160 H   0  0  0  0  0  0  0  0  0  0  0  0
    0.0078   -0.5781    0.8159 H   0  0  0  0  0  0  0  0  0  0  0  0
   -1.2322    0.8286    0.0000 N   0  0  0  0  0  4  0  0  0  0  0  0
   -2.0352    0.2315   -0.0040 H   0  0  0  0  0  0  0  0  0  0  0  0
   -1.2478    1.4022    0.8195 H   0  0  0  0  0  0  0  0  0  0  0  0
   -1.2439    1.4087   -0.8137 H   0  0  0  0  0  0  0  0  0  0  0  0
    4.6471    1.2420    2.5768 C   0  0  0  0  0  0  0  0  0  0  0  0
    5.2833    1.7031    1.9570 H   0  0  0  0  0  0  0  0  0  0  0  0
    4.7771    0.2515    2.5040 H   0  0  0  0  0  0  0  0  0  0  0  0
    4.8200    1.5688    3.6021 H   0  0  0  0  0  0  0  0  0  0  0  0
    2.9257    1.6783    2.1396 S   0  0  0  0  0  0  0  0  0  0  0  0
    2.0439    0.7345    3.3886 C   0  0  0  0  0  0  0  0  0  0  0  0
    1.0954    1.0488    3.4367 H   0  0  0  0  0  0  0  0  0  0  0  0
    2.0613   -0.2359    3.1474 H   0  0  0  0  0  0  0  0  0  0  0  0
    2.4838    0.8655    4.2773 H   0  0  0  0  0  0  0  0  0  0  0  0
  1  5  1  0
  5  8  1  0
  1  2  1  0
  1  3  1  0
  1  4  1  0
  5  6  1  0
  5  7  1  0
  8  9  1  0
  8 10  1  0
  8 11  1  0
 12 16  1  0
 16 17  1  0
 12 13  1  0
 12 14  1  0
 12 15  1  0
 17 18  1  0
 17 19  1  0
 17 20  1  0
M  CHG  1   8   1
M  END
>  <PDB_ID>  (1344) 
pdb4ror

>  <RESIDUE_NAME>  (1344) 
LYS   MET

>  <FRAG_NAME>  (1344) 
ETAM   MSM

>  <FRAG_ATOM_NUM>  (1344) 
fragi: 11  fragj: 9

>  <atom.prop.CHAIN_ID>  (1344) 
A A A A A A A A A A A Z Z Z Z Z Z Z Z Z

>  <atom.prop.IS_HEAVY_ATOM>  (1344) 
1 0 0 0 1 0 0 1 0 0 0 1 0 0 0 1 1 0 0 0

>  <DIFUSE_FUNC_ATOM>  (1344) 
n/a

>  <FINAL_SINGLE_POINT_ENERGY>  (1344) 
0

>  <NONCOV_INTER_ENERGY_QM>  (1344) 
0

>  <FF_Energy>  (1344) 
22.46

>  <QM_Energy>  (1344) 
6.04

>  <source>  (1344) 
ETAM_MSM

>  <Index>  (1344) 
8385

$$$$
ETAM-pdb4rr6-A-LYS-102:MSM-pdb4rr6-A-MET-52
     RDKit          3D

 20 18  0  0  0  0  0  0  0  0999 V2000
    1.2419    0.9096   -0.0000 C   0  0  0  0  0  0  0  0  0  0  0  0
    1.2369    1.4453   -0.8365 H   0  0  0  0  0  0  0  0  0  0  0  0
    2.0494    0.3344    0.0437 H   0  0  0  0  0  0  0  0  0  0  0  0
    1.2467    1.5888    0.8524 H   0  0  0  0  0  0  0  0  0  0  0  0
    0.0000    0.0000    0.0000 C   0  0  0  0  0  0  0  0  0  0  0  0
    0.0100   -0.5565   -0.8159 H   0  0  0  0  0  0  0  0  0  0  0  0
    0.0094   -0.5574    0.8166 H   0  0  0  0  0  0  0  0  0  0  0  0
   -1.2419    0.8582    0.0000 N   0  0  0  0  0  4  0  0  0  0  0  0
   -1.0705    1.6718   -0.5486 H   0  0  0  0  0  0  0  0  0  0  0  0
   -1.9936    0.3342   -0.3900 H   0  0  0  0  0  0  0  0  0  0  0  0
   -1.4537    1.1155    0.9385 H   0  0  0  0  0  0  0  0  0  0  0  0
   -4.7103    1.4245    1.6738 C   0  0  0  0  0  0  0  0  0  0  0  0
   -5.1988    0.6142    1.2915 H   0  0  0  0  0  0  0  0  0  0  0  0
   -4.2910    1.9073    0.8781 H   0  0  0  0  0  0  0  0  0  0  0  0
   -5.4537    2.0874    2.1165 H   0  0  0  0  0  0  0  0  0  0  0  0
   -3.3591    0.8534    2.8563 S   0  0  0  0  0  0  0  0  0  0  0  0
   -4.4259    0.4524    4.2798 C   0  0  0  0  0  0  0  0  0  0  0  0
   -5.1145    1.1662    4.3740 H   0  0  0  0  0  0  0  0  0  0  0  0
   -4.8624   -0.4268    4.1142 H   0  0  0  0  0  0  0  0  0  0  0  0
   -3.8623    0.4078    5.0990 H   0  0  0  0  0  0  0  0  0  0  0  0
  1  5  1  0
  5  8  1  0
  1  2  1  0
  1  3  1  0
  1  4  1  0
  5  6  1  0
  5  7  1  0
  8  9  1  0
  8 10  1  0
  8 11  1  0
 12 16  1  0
 16 17  1  0
 12 13  1  0
 12 14  1  0
 12 15  1  0
 17 18  1  0
 17 19  1  0
 17 20  1  0
M  CHG  1   8   1
M  END
>  <PDB_ID>  (1345) 
pdb4rr6

>  <RESIDUE_NAME>  (1345) 
LYS   MET

>  <FRAG_NAME>  (1345) 
ETAM   MSM

>  <FRAG_ATOM_NUM>  (1345) 
fragi: 11  fragj: 9

>  <atom.prop.CHAIN_ID>  (1345) 
A A A A A A A A A A A Z Z Z Z Z Z Z Z Z

>  <atom.prop.IS_HEAVY_ATOM>  (1345) 
1 0 0 0 1 0 0 1 0 0 0 1 0 0 0 1 1 0 0 0

>  <DIFUSE_FUNC_ATOM>  (1345) 
n/a

>  <FINAL_SINGLE_POINT_ENERGY>  (1345) 
0

>  <NONCOV_INTER_ENERGY_QM>  (1345) 
0

>  <FF_Energy>  (1345) 
-4.66

>  <QM_Energy>  (1345) 
-10.16

>  <source>  (1345) 
ETAM_MSM

>  <Index>  (1345) 
8394

$$$$
ETAM-pdb4rsl-A-LYS-387:MSM-pdb4rsl-A-MET-78
     RDKit          3D

 20 18  0  0  0  0  0  0  0  0999 V2000
    1.2624    0.8752   -0.0000 C   0  0  0  0  0  0  0  0  0  0  0  0
    1.1439    1.5942    0.6706 H   0  0  0  0  0  0  0  0  0  0  0  0
    1.3807    1.2505   -0.9085 H   0  0  0  0  0  0  0  0  0  0  0  0
    2.1433    0.2886    0.2605 H   0  0  0  0  0  0  0  0  0  0  0  0
    0.0000    0.0000    0.0000 C   0  0  0  0  0  0  0  0  0  0  0  0
    0.0179   -0.5865   -0.8159 H   0  0  0  0  0  0  0  0  0  0  0  0
    0.0170   -0.5862    0.8167 H   0  0  0  0  0  0  0  0  0  0  0  0
   -1.2624    0.8033   -0.0000 N   0  0  0  0  0  4  0  0  0  0  0  0
   -1.9680    0.3042    0.4985 H   0  0  0  0  0  0  0  0  0  0  0  0
   -1.0922    1.6811    0.4446 H   0  0  0  0  0  0  0  0  0  0  0  0
   -1.5559    0.9524   -0.9426 H   0  0  0  0  0  0  0  0  0  0  0  0
   -3.9498    0.9529    3.6020 C   0  0  0  0  0  0  0  0  0  0  0  0
   -4.5934    0.6426    2.8695 H   0  0  0  0  0  0  0  0  0  0  0  0
   -3.9342    1.9747    3.5459 H   0  0  0  0  0  0  0  0  0  0  0  0
   -4.3662    0.6676    4.5680 H   0  0  0  0  0  0  0  0  0  0  0  0
   -2.2936    0.2718    3.3306 S   0  0  0  0  0  0  0  0  0  0  0  0
   -2.7027   -1.4546    3.1761 C   0  0  0  0  0  0  0  0  0  0  0  0
   -3.5947   -1.6321    3.5971 H   0  0  0  0  0  0  0  0  0  0  0  0
   -2.7408   -1.7103    2.2066 H   0  0  0  0  0  0  0  0  0  0  0  0
   -2.0066   -2.0119    3.6350 H   0  0  0  0  0  0  0  0  0  0  0  0
  1  5  1  0
  5  8  1  0
  1  2  1  0
  1  3  1  0
  1  4  1  0
  5  6  1  0
  5  7  1  0
  8  9  1  0
  8 10  1  0
  8 11  1  0
 12 16  1  0
 16 17  1  0
 12 13  1  0
 12 14  1  0
 12 15  1  0
 17 18  1  0
 17 19  1  0
 17 20  1  0
M  CHG  1   8   1
M  END
>  <PDB_ID>  (1346) 
pdb4rsl

>  <RESIDUE_NAME>  (1346) 
LYS   MET

>  <FRAG_NAME>  (1346) 
ETAM   MSM

>  <FRAG_ATOM_NUM>  (1346) 
fragi: 11  fragj: 9

>  <atom.prop.CHAIN_ID>  (1346) 
A A A A A A A A A A A Z Z Z Z Z Z Z Z Z

>  <atom.prop.IS_HEAVY_ATOM>  (1346) 
1 0 0 0 1 0 0 1 0 0 0 1 0 0 0 1 1 0 0 0

>  <DIFUSE_FUNC_ATOM>  (1346) 
n/a

>  <FINAL_SINGLE_POINT_ENERGY>  (1346) 
0

>  <NONCOV_INTER_ENERGY_QM>  (1346) 
0

>  <FF_Energy>  (1346) 
-4.79

>  <QM_Energy>  (1346) 
-12.44

>  <source>  (1346) 
ETAM_MSM

>  <Index>  (1346) 
8397

$$$$
ETAM-pdb4ruh-A-LYS-302:MSM-pdb4ruh-A-MET-306
     RDKit          3D

 20 18  0  0  0  0  0  0  0  0999 V2000
    1.2426    0.8744    0.0000 C   0  0  0  0  0  0  0  0  0  0  0  0
    0.9923    1.7790   -0.3271 H   0  0  0  0  0  0  0  0  0  0  0  0
    1.9186    0.4618   -0.5992 H   0  0  0  0  0  0  0  0  0  0  0  0
    1.6589    0.9607    1.0037 H   0  0  0  0  0  0  0  0  0  0  0  0
    0.0000    0.0000    0.0000 C   0  0  0  0  0  0  0  0  0  0  0  0
    0.0071   -0.5782   -0.8162 H   0  0  0  0  0  0  0  0  0  0  0  0
    0.0066   -0.5780    0.8166 H   0  0  0  0  0  0  0  0  0  0  0  0
   -1.2426    0.8299   -0.0000 N   0  0  0  0  0  4  0  0  0  0  0  0
   -1.5778    0.9186    0.9364 H   0  0  0  0  0  0  0  0  0  0  0  0
   -1.0346    1.7333   -0.3706 H   0  0  0  0  0  0  0  0  0  0  0  0
   -1.9353    0.3847   -0.5655 H   0  0  0  0  0  0  0  0  0  0  0  0
   -1.5388    1.7145    3.8813 C   0  0  0  0  0  0  0  0  0  0  0  0
   -1.7747    2.6888    3.9987 H   0  0  0  0  0  0  0  0  0  0  0  0
   -0.5366    1.6462    3.7800 H   0  0  0  0  0  0  0  0  0  0  0  0
   -1.8495    1.1609    4.7673 H   0  0  0  0  0  0  0  0  0  0  0  0
   -2.3733    1.0277    2.4342 S   0  0  0  0  0  0  0  0  0  0  0  0
   -3.4755    2.3768    2.0280 C   0  0  0  0  0  0  0  0  0  0  0  0
   -4.4251    2.0616    2.0742 H   0  0  0  0  0  0  0  0  0  0  0  0
   -3.3434    3.1275    2.6782 H   0  0  0  0  0  0  0  0  0  0  0  0
   -3.2805    2.7041    1.1016 H   0  0  0  0  0  0  0  0  0  0  0  0
  1  5  1  0
  5  8  1  0
  1  2  1  0
  1  3  1  0
  1  4  1  0
  5  6  1  0
  5  7  1  0
  8  9  1  0
  8 10  1  0
  8 11  1  0
 12 16  1  0
 16 17  1  0
 12 13  1  0
 12 14  1  0
 12 15  1  0
 17 18  1  0
 17 19  1  0
 17 20  1  0
M  CHG  1   8   1
M  END
>  <PDB_ID>  (1347) 
pdb4ruh

>  <RESIDUE_NAME>  (1347) 
LYS   MET

>  <FRAG_NAME>  (1347) 
ETAM   MSM

>  <FRAG_ATOM_NUM>  (1347) 
fragi: 11  fragj: 9

>  <atom.prop.CHAIN_ID>  (1347) 
A A A A A A A A A A A Z Z Z Z Z Z Z Z Z

>  <atom.prop.IS_HEAVY_ATOM>  (1347) 
1 0 0 0 1 0 0 1 0 0 0 1 0 0 0 1 1 0 0 0

>  <DIFUSE_FUNC_ATOM>  (1347) 
n/a

>  <FINAL_SINGLE_POINT_ENERGY>  (1347) 
0

>  <NONCOV_INTER_ENERGY_QM>  (1347) 
0

>  <FF_Energy>  (1347) 
11.06

>  <QM_Energy>  (1347) 
-5.25

>  <source>  (1347) 
ETAM_MSM

>  <Index>  (1347) 
8401

$$$$
ETAM-pdb4rvq-A-LYS-290:MSM-pdb4rvq-A-MET-0
     RDKit          3D

 20 18  0  0  0  0  0  0  0  0999 V2000
    1.2269    0.9097   -0.0000 C   0  0  0  0  0  0  0  0  0  0  0  0
    2.0160    0.3585    0.1164 H   0  0  0  0  0  0  0  0  0  0  0  0
    1.1412    1.5382    0.7331 H   0  0  0  0  0  0  0  0  0  0  0  0
    1.3008    1.4563   -0.9401 H   0  0  0  0  0  0  0  0  0  0  0  0
    0.0000    0.0000    0.0000 C   0  0  0  0  0  0  0  0  0  0  0  0
    0.0017   -0.5503   -0.7982 H   0  0  0  0  0  0  0  0  0  0  0  0
    0.0015   -0.5515    0.7983 H   0  0  0  0  0  0  0  0  0  0  0  0
   -1.2269    0.8370    0.0000 N   0  0  0  0  0  4  0  0  0  0  0  0
   -1.2428    1.3537    0.7239 H   0  0  0  0  0  0  0  0  0  0  0  0
   -1.2426    1.3538   -0.7248 H   0  0  0  0  0  0  0  0  0  0  0  0
   -1.9493    0.3171   -0.0003 H   0  0  0  0  0  0  0  0  0  0  0  0
   -5.0593    0.2777   -0.2154 C   0  0  0  0  0  0  0  0  0  0  0  0
   -5.5152   -0.1453    0.5285 H   0  0  0  0  0  0  0  0  0  0  0  0
   -4.4484   -0.3520   -0.6278 H   0  0  0  0  0  0  0  0  0  0  0  0
   -5.8022    0.5799   -0.9535 H   0  0  0  0  0  0  0  0  0  0  0  0
   -4.0779    1.6441    0.4440 S   0  0  0  0  0  0  0  0  0  0  0  0
   -3.6306    0.9873    2.0570 C   0  0  0  0  0  0  0  0  0  0  0  0
   -3.0873    1.6415    2.5244 H   0  0  0  0  0  0  0  0  0  0  0  0
   -4.4401    0.8076    2.5599 H   0  0  0  0  0  0  0  0  0  0  0  0
   -3.1276    0.1665    1.9342 H   0  0  0  0  0  0  0  0  0  0  0  0
  1  5  1  0
  5  8  1  0
  1  2  1  0
  1  3  1  0
  1  4  1  0
  5  6  1  0
  5  7  1  0
  8  9  1  0
  8 10  1  0
  8 11  1  0
 12 16  1  0
 16 17  1  0
 12 13  1  0
 12 14  1  0
 12 15  1  0
 17 18  1  0
 17 19  1  0
 17 20  1  0
M  CHG  1   8   1
M  END
>  <PDB_ID>  (1348) 
pdb4rvq

>  <RESIDUE_NAME>  (1348) 
LYS   MET

>  <FRAG_NAME>  (1348) 
ETAM   MSM

>  <FRAG_ATOM_NUM>  (1348) 
fragi: 11  fragj: 9

>  <atom.prop.CHAIN_ID>  (1348) 
A A A A A A A A A A A Z Z Z Z Z Z Z Z Z

>  <atom.prop.IS_HEAVY_ATOM>  (1348) 
1 0 0 0 1 0 0 1 0 0 0 1 0 0 0 1 1 0 0 0

>  <DIFUSE_FUNC_ATOM>  (1348) 
n/a

>  <FINAL_SINGLE_POINT_ENERGY>  (1348) 
0

>  <NONCOV_INTER_ENERGY_QM>  (1348) 
0

>  <FF_Energy>  (1348) 
-0.72

>  <QM_Energy>  (1348) 
-9.7

>  <source>  (1348) 
ETAM_MSM

>  <Index>  (1348) 
8404

$$$$
ETAM-pdb4ry8-C-LYS-229:MSM-pdb4ry8-C-MET-258
     RDKit          3D

 20 18  0  0  0  0  0  0  0  0999 V2000
    1.2777    0.8045   -0.0000 C   0  0  0  0  0  0  0  0  0  0  0  0
    2.0488    0.1745   -0.0622 H   0  0  0  0  0  0  0  0  0  0  0  0
    1.3281    1.3188    0.8529 H   0  0  0  0  0  0  0  0  0  0  0  0
    1.3094    1.4965   -0.8415 H   0  0  0  0  0  0  0  0  0  0  0  0
    0.0000    0.0000    0.0000 C   0  0  0  0  0  0  0  0  0  0  0  0
    0.0037   -0.6221   -0.8162 H   0  0  0  0  0  0  0  0  0  0  0  0
    0.0038   -0.6231    0.8167 H   0  0  0  0  0  0  0  0  0  0  0  0
   -1.2777    0.7661   -0.0000 N   0  0  0  0  0  4  0  0  0  0  0  0
   -1.1188    1.6736   -0.3867 H   0  0  0  0  0  0  0  0  0  0  0  0
   -1.9548    0.2797   -0.5518 H   0  0  0  0  0  0  0  0  0  0  0  0
   -1.6101    0.8546    0.9382 H   0  0  0  0  0  0  0  0  0  0  0  0
    4.3018   -2.4631    1.6822 C   0  0  0  0  0  0  0  0  0  0  0  0
    4.7368   -3.3384    1.4169 H   0  0  0  0  0  0  0  0  0  0  0  0
    3.5922   -2.6756    2.3739 H   0  0  0  0  0  0  0  0  0  0  0  0
    5.0540   -1.8147    2.1317 H   0  0  0  0  0  0  0  0  0  0  0  0
    3.5497   -1.6611    0.2265 S   0  0  0  0  0  0  0  0  0  0  0  0
    5.0263   -1.3155   -0.6981 C   0  0  0  0  0  0  0  0  0  0  0  0
    5.4452   -0.4643   -0.3706 H   0  0  0  0  0  0  0  0  0  0  0  0
    5.6842   -2.0658   -0.5875 H   0  0  0  0  0  0  0  0  0  0  0  0
    4.8057   -1.2163   -1.6717 H   0  0  0  0  0  0  0  0  0  0  0  0
  1  5  1  0
  5  8  1  0
  1  2  1  0
  1  3  1  0
  1  4  1  0
  5  6  1  0
  5  7  1  0
  8  9  1  0
  8 10  1  0
  8 11  1  0
 12 16  1  0
 16 17  1  0
 12 13  1  0
 12 14  1  0
 12 15  1  0
 17 18  1  0
 17 19  1  0
 17 20  1  0
M  CHG  1   8   1
M  END
>  <PDB_ID>  (1349) 
pdb4ry8

>  <RESIDUE_NAME>  (1349) 
LYS   MET

>  <FRAG_NAME>  (1349) 
ETAM   MSM

>  <FRAG_ATOM_NUM>  (1349) 
fragi: 11  fragj: 9

>  <atom.prop.CHAIN_ID>  (1349) 
A A A A A A A A A A A Z Z Z Z Z Z Z Z Z

>  <atom.prop.IS_HEAVY_ATOM>  (1349) 
1 0 0 0 1 0 0 1 0 0 0 1 0 0 0 1 1 0 0 0

>  <DIFUSE_FUNC_ATOM>  (1349) 
n/a

>  <FINAL_SINGLE_POINT_ENERGY>  (1349) 
0

>  <NONCOV_INTER_ENERGY_QM>  (1349) 
0

>  <FF_Energy>  (1349) 
1.22

>  <QM_Energy>  (1349) 
-5.25

>  <source>  (1349) 
ETAM_MSM

>  <Index>  (1349) 
8415

$$$$
ETAM-pdb4ry8-D-LYS-229:MSM-pdb4ry8-D-MET-258
     RDKit          3D

 20 18  0  0  0  0  0  0  0  0999 V2000
    1.2617    0.8071    0.0000 C   0  0  0  0  0  0  0  0  0  0  0  0
    1.9928    0.2599    0.3844 H   0  0  0  0  0  0  0  0  0  0  0  0
    1.1165    1.6295    0.5335 H   0  0  0  0  0  0  0  0  0  0  0  0
    1.5156    1.0799   -1.0243 H   0  0  0  0  0  0  0  0  0  0  0  0
    0.0000    0.0000    0.0000 C   0  0  0  0  0  0  0  0  0  0  0  0
   -0.0035   -0.6144   -0.8157 H   0  0  0  0  0  0  0  0  0  0  0  0
   -0.0039   -0.6148    0.8164 H   0  0  0  0  0  0  0  0  0  0  0  0
   -1.2617    0.7876   -0.0000 N   0  0  0  0  0  4  0  0  0  0  0  0
   -1.0958    1.6811    0.4166 H   0  0  0  0  0  0  0  0  0  0  0  0
   -1.5765    0.9103   -0.9413 H   0  0  0  0  0  0  0  0  0  0  0  0
   -1.9582    0.2987    0.5243 H   0  0  0  0  0  0  0  0  0  0  0  0
    4.6813   -0.7754    2.9769 C   0  0  0  0  0  0  0  0  0  0  0  0
    5.2170   -1.6143    3.2338 H   0  0  0  0  0  0  0  0  0  0  0  0
    3.9911   -0.6557    3.7283 H   0  0  0  0  0  0  0  0  0  0  0  0
    5.3573    0.0796    2.9925 H   0  0  0  0  0  0  0  0  0  0  0  0
    3.8362   -1.0273    1.3732 S   0  0  0  0  0  0  0  0  0  0  0  0
    5.2895   -1.0963    0.3290 C   0  0  0  0  0  0  0  0  0  0  0  0
    5.5229   -2.0516    0.1418 H   0  0  0  0  0  0  0  0  0  0  0  0
    5.1053   -0.6242   -0.5344 H   0  0  0  0  0  0  0  0  0  0  0  0
    6.0572   -0.6518    0.7925 H   0  0  0  0  0  0  0  0  0  0  0  0
  1  5  1  0
  5  8  1  0
  1  2  1  0
  1  3  1  0
  1  4  1  0
  5  6  1  0
  5  7  1  0
  8  9  1  0
  8 10  1  0
  8 11  1  0
 12 16  1  0
 16 17  1  0
 12 13  1  0
 12 14  1  0
 12 15  1  0
 17 18  1  0
 17 19  1  0
 17 20  1  0
M  CHG  1   8   1
M  END
>  <PDB_ID>  (1350) 
pdb4ry8

>  <RESIDUE_NAME>  (1350) 
LYS   MET

>  <FRAG_NAME>  (1350) 
ETAM   MSM

>  <FRAG_ATOM_NUM>  (1350) 
fragi: 11  fragj: 9

>  <atom.prop.CHAIN_ID>  (1350) 
A A A A A A A A A A A Z Z Z Z Z Z Z Z Z

>  <atom.prop.IS_HEAVY_ATOM>  (1350) 
1 0 0 0 1 0 0 1 0 0 0 1 0 0 0 1 1 0 0 0

>  <DIFUSE_FUNC_ATOM>  (1350) 
n/a

>  <FINAL_SINGLE_POINT_ENERGY>  (1350) 
0

>  <NONCOV_INTER_ENERGY_QM>  (1350) 
0

>  <FF_Energy>  (1350) 
-0.15

>  <QM_Energy>  (1350) 
-5.43

>  <source>  (1350) 
ETAM_MSM

>  <Index>  (1350) 
8417

$$$$
ETAM-pdb4s1b-D-LYS-502:MSM-pdb4s1b-D-MET-506
     RDKit          3D

 20 18  0  0  0  0  0  0  0  0999 V2000
    1.2510    0.8765    0.0000 C   0  0  0  0  0  0  0  0  0  0  0  0
    2.0482    0.2903   -0.1048 H   0  0  0  0  0  0  0  0  0  0  0  0
    1.2939    1.3666    0.8643 H   0  0  0  0  0  0  0  0  0  0  0  0
    1.2389    1.6007   -0.8145 H   0  0  0  0  0  0  0  0  0  0  0  0
    0.0000    0.0000    0.0000 C   0  0  0  0  0  0  0  0  0  0  0  0
    0.0154   -0.5836   -0.8160 H   0  0  0  0  0  0  0  0  0  0  0  0
    0.0155   -0.5839    0.8160 H   0  0  0  0  0  0  0  0  0  0  0  0
   -1.2510    0.8095    0.0000 N   0  0  0  0  0  4  0  0  0  0  0  0
   -2.0409    0.1970    0.0050 H   0  0  0  0  0  0  0  0  0  0  0  0
   -1.2701    1.3885    0.8145 H   0  0  0  0  0  0  0  0  0  0  0  0
   -1.2746    1.3818   -0.8185 H   0  0  0  0  0  0  0  0  0  0  0  0
   -1.7392    4.7769    0.1361 C   0  0  0  0  0  0  0  0  0  0  0  0
   -2.6974    4.4617   -0.1179 H   0  0  0  0  0  0  0  0  0  0  0  0
   -1.1608    4.4675   -0.6701 H   0  0  0  0  0  0  0  0  0  0  0  0
   -1.7397    5.8668    0.1467 H   0  0  0  0  0  0  0  0  0  0  0  0
   -1.1883    3.9697    1.6606 S   0  0  0  0  0  0  0  0  0  0  0  0
    0.5265    4.5058    1.7848 C   0  0  0  0  0  0  0  0  0  0  0  0
    1.0248    4.2127    0.9692 H   0  0  0  0  0  0  0  0  0  0  0  0
    0.5575    5.5019    1.8565 H   0  0  0  0  0  0  0  0  0  0  0  0
    0.9428    4.0978    2.5972 H   0  0  0  0  0  0  0  0  0  0  0  0
  1  5  1  0
  5  8  1  0
  1  2  1  0
  1  3  1  0
  1  4  1  0
  5  6  1  0
  5  7  1  0
  8  9  1  0
  8 10  1  0
  8 11  1  0
 12 16  1  0
 16 17  1  0
 12 13  1  0
 12 14  1  0
 12 15  1  0
 17 18  1  0
 17 19  1  0
 17 20  1  0
M  CHG  1   8   1
M  END
>  <PDB_ID>  (1351) 
pdb4s1b

>  <RESIDUE_NAME>  (1351) 
LYS   MET

>  <FRAG_NAME>  (1351) 
ETAM   MSM

>  <FRAG_ATOM_NUM>  (1351) 
fragi: 11  fragj: 9

>  <atom.prop.CHAIN_ID>  (1351) 
A A A A A A A A A A A Z Z Z Z Z Z Z Z Z

>  <atom.prop.IS_HEAVY_ATOM>  (1351) 
1 0 0 0 1 0 0 1 0 0 0 1 0 0 0 1 1 0 0 0

>  <DIFUSE_FUNC_ATOM>  (1351) 
n/a

>  <FINAL_SINGLE_POINT_ENERGY>  (1351) 
0

>  <NONCOV_INTER_ENERGY_QM>  (1351) 
0

>  <FF_Energy>  (1351) 
-4.79

>  <QM_Energy>  (1351) 
-13.11

>  <source>  (1351) 
ETAM_MSM

>  <Index>  (1351) 
8433

$$$$
ETAM-pdb4tkl-A-LYS-126:MSM-pdb4tkl-A-MET-123
     RDKit          3D

 20 18  0  0  0  0  0  0  0  0999 V2000
    1.2414    0.8686   -0.0000 C   0  0  0  0  0  0  0  0  0  0  0  0
    1.1394    1.5719    0.6997 H   0  0  0  0  0  0  0  0  0  0  0  0
    1.3339    1.2918   -0.8975 H   0  0  0  0  0  0  0  0  0  0  0  0
    2.1402    0.2896    0.2120 H   0  0  0  0  0  0  0  0  0  0  0  0
    0.0000    0.0000    0.0000 C   0  0  0  0  0  0  0  0  0  0  0  0
    0.0091   -0.5832   -0.8160 H   0  0  0  0  0  0  0  0  0  0  0  0
    0.0080   -0.5838    0.8164 H   0  0  0  0  0  0  0  0  0  0  0  0
   -1.2414    0.8195   -0.0000 N   0  0  0  0  0  4  0  0  0  0  0  0
   -1.0814    1.6642   -0.5094 H   0  0  0  0  0  0  0  0  0  0  0  0
   -1.9805    0.3026   -0.4317 H   0  0  0  0  0  0  0  0  0  0  0  0
   -1.4934    1.0400    0.9414 H   0  0  0  0  0  0  0  0  0  0  0  0
   -0.9922   -0.8305   -4.9352 C   0  0  0  0  0  0  0  0  0  0  0  0
   -0.5851   -0.5073   -5.8255 H   0  0  0  0  0  0  0  0  0  0  0  0
   -1.9895   -0.9858   -5.1431 H   0  0  0  0  0  0  0  0  0  0  0  0
   -0.5401   -1.7887   -4.6791 H   0  0  0  0  0  0  0  0  0  0  0  0
   -0.8017    0.4344   -3.6544 S   0  0  0  0  0  0  0  0  0  0  0  0
   -1.6247    1.8150   -4.4273 C   0  0  0  0  0  0  0  0  0  0  0  0
   -1.1946    2.6727   -4.1362 H   0  0  0  0  0  0  0  0  0  0  0  0
   -1.5579    1.7351   -5.4243 H   0  0  0  0  0  0  0  0  0  0  0  0
   -2.5916    1.8258   -4.1627 H   0  0  0  0  0  0  0  0  0  0  0  0
  1  5  1  0
  5  8  1  0
  1  2  1  0
  1  3  1  0
  1  4  1  0
  5  6  1  0
  5  7  1  0
  8  9  1  0
  8 10  1  0
  8 11  1  0
 12 16  1  0
 16 17  1  0
 12 13  1  0
 12 14  1  0
 12 15  1  0
 17 18  1  0
 17 19  1  0
 17 20  1  0
M  CHG  1   8   1
M  END
>  <PDB_ID>  (1352) 
pdb4tkl

>  <RESIDUE_NAME>  (1352) 
LYS   MET

>  <FRAG_NAME>  (1352) 
ETAM   MSM

>  <FRAG_ATOM_NUM>  (1352) 
fragi: 11  fragj: 9

>  <atom.prop.CHAIN_ID>  (1352) 
A A A A A A A A A A A Z Z Z Z Z Z Z Z Z

>  <atom.prop.IS_HEAVY_ATOM>  (1352) 
1 0 0 0 1 0 0 1 0 0 0 1 0 0 0 1 1 0 0 0

>  <DIFUSE_FUNC_ATOM>  (1352) 
n/a

>  <FINAL_SINGLE_POINT_ENERGY>  (1352) 
0

>  <NONCOV_INTER_ENERGY_QM>  (1352) 
0

>  <FF_Energy>  (1352) 
-5.3

>  <QM_Energy>  (1352) 
-11.83

>  <source>  (1352) 
ETAM_MSM

>  <Index>  (1352) 
8453

$$$$
ETAM-pdb4tkl-B-LYS-126:MSM-pdb4tkl-B-MET-123
     RDKit          3D

 20 18  0  0  0  0  0  0  0  0999 V2000
    1.2423    0.8692    0.0000 C   0  0  0  0  0  0  0  0  0  0  0  0
    1.1008    1.6266    0.6321 H   0  0  0  0  0  0  0  0  0  0  0  0
    1.3881    1.2162   -0.9219 H   0  0  0  0  0  0  0  0  0  0  0  0
    2.1251    0.3105    0.3110 H   0  0  0  0  0  0  0  0  0  0  0  0
    0.0000    0.0000    0.0000 C   0  0  0  0  0  0  0  0  0  0  0  0
    0.0087   -0.5833   -0.8166 H   0  0  0  0  0  0  0  0  0  0  0  0
    0.0088   -0.5833    0.8159 H   0  0  0  0  0  0  0  0  0  0  0  0
   -1.2423    0.8187    0.0000 N   0  0  0  0  0  4  0  0  0  0  0  0
   -1.0526    1.7104   -0.4104 H   0  0  0  0  0  0  0  0  0  0  0  0
   -1.9491    0.3501   -0.5302 H   0  0  0  0  0  0  0  0  0  0  0  0
   -1.5569    0.9438    0.9408 H   0  0  0  0  0  0  0  0  0  0  0  0
   -0.6700   -0.9298   -4.9439 C   0  0  0  0  0  0  0  0  0  0  0  0
   -0.2024   -0.6297   -5.8080 H   0  0  0  0  0  0  0  0  0  0  0  0
   -1.6499   -1.0883   -5.2068 H   0  0  0  0  0  0  0  0  0  0  0  0
   -0.2390   -1.8821   -4.6348 H   0  0  0  0  0  0  0  0  0  0  0  0
   -0.5471    0.3452   -3.6743 S   0  0  0  0  0  0  0  0  0  0  0  0
   -1.3757    1.7046   -4.4917 C   0  0  0  0  0  0  0  0  0  0  0  0
   -0.8694    1.9608   -5.3165 H   0  0  0  0  0  0  0  0  0  0  0  0
   -2.3044    1.4285   -4.7460 H   0  0  0  0  0  0  0  0  0  0  0  0
   -1.4213    2.4910   -3.8741 H   0  0  0  0  0  0  0  0  0  0  0  0
  1  5  1  0
  5  8  1  0
  1  2  1  0
  1  3  1  0
  1  4  1  0
  5  6  1  0
  5  7  1  0
  8  9  1  0
  8 10  1  0
  8 11  1  0
 12 16  1  0
 16 17  1  0
 12 13  1  0
 12 14  1  0
 12 15  1  0
 17 18  1  0
 17 19  1  0
 17 20  1  0
M  CHG  1   8   1
M  END
>  <PDB_ID>  (1353) 
pdb4tkl

>  <RESIDUE_NAME>  (1353) 
LYS   MET

>  <FRAG_NAME>  (1353) 
ETAM   MSM

>  <FRAG_ATOM_NUM>  (1353) 
fragi: 11  fragj: 9

>  <atom.prop.CHAIN_ID>  (1353) 
A A A A A A A A A A A Z Z Z Z Z Z Z Z Z

>  <atom.prop.IS_HEAVY_ATOM>  (1353) 
1 0 0 0 1 0 0 1 0 0 0 1 0 0 0 1 1 0 0 0

>  <DIFUSE_FUNC_ATOM>  (1353) 
n/a

>  <FINAL_SINGLE_POINT_ENERGY>  (1353) 
0

>  <NONCOV_INTER_ENERGY_QM>  (1353) 
0

>  <FF_Energy>  (1353) 
-5.1

>  <QM_Energy>  (1353) 
-11.54

>  <source>  (1353) 
ETAM_MSM

>  <Index>  (1353) 
8454

$$$$
ETAM-pdb3u0i-A-LYS-54:MSM-pdb3u0i-A-MET-36
     RDKit          3D

 20 18  0  0  0  0  0  0  0  0999 V2000
    1.2857    0.8360    0.0000 C   0  0  0  0  0  0  0  0  0  0  0  0
    1.1023    1.6958    0.4484 H   0  0  0  0  0  0  0  0  0  0  0  0
    1.5763    0.9663   -0.9339 H   0  0  0  0  0  0  0  0  0  0  0  0
    2.0740    0.3170    0.5452 H   0  0  0  0  0  0  0  0  0  0  0  0
    0.0000    0.0000    0.0000 C   0  0  0  0  0  0  0  0  0  0  0  0
    0.0077   -0.6051   -0.8164 H   0  0  0  0  0  0  0  0  0  0  0  0
    0.0076   -0.6052    0.8159 H   0  0  0  0  0  0  0  0  0  0  0  0
   -1.2857    0.7865    0.0000 N   0  0  0  0  0  4  0  0  0  0  0  0
   -1.4807    1.0845   -0.9302 H   0  0  0  0  0  0  0  0  0  0  0  0
   -2.0213    0.2018    0.3332 H   0  0  0  0  0  0  0  0  0  0  0  0
   -1.1798    1.5769    0.5975 H   0  0  0  0  0  0  0  0  0  0  0  0
   -0.4916    2.6978   -4.8000 C   0  0  0  0  0  0  0  0  0  0  0  0
   -0.7125    1.7256   -5.0434 H   0  0  0  0  0  0  0  0  0  0  0  0
    0.5279    2.7758   -4.8822 H   0  0  0  0  0  0  0  0  0  0  0  0
   -0.9480    3.3501   -5.5445 H   0  0  0  0  0  0  0  0  0  0  0  0
   -1.0325    3.0831   -3.1410 S   0  0  0  0  0  0  0  0  0  0  0  0
    0.0648    4.4568   -2.7596 C   0  0  0  0  0  0  0  0  0  0  0  0
   -0.4773    5.2828   -2.6073 H   0  0  0  0  0  0  0  0  0  0  0  0
    0.5892    4.2441   -1.9350 H   0  0  0  0  0  0  0  0  0  0  0  0
    0.6907    4.6040   -3.5249 H   0  0  0  0  0  0  0  0  0  0  0  0
  1  5  1  0
  5  8  1  0
  1  2  1  0
  1  3  1  0
  1  4  1  0
  5  6  1  0
  5  7  1  0
  8  9  1  0
  8 10  1  0
  8 11  1  0
 12 16  1  0
 16 17  1  0
 12 13  1  0
 12 14  1  0
 12 15  1  0
 17 18  1  0
 17 19  1  0
 17 20  1  0
M  CHG  1   8   1
M  END
>  <PDB_ID>  (1354) 
pdb3u0i

>  <RESIDUE_NAME>  (1354) 
LYS   MET

>  <FRAG_NAME>  (1354) 
ETAM   MSM

>  <FRAG_ATOM_NUM>  (1354) 
fragi: 11  fragj: 9

>  <atom.prop.CHAIN_ID>  (1354) 
A A A A A A A A A A A Z Z Z Z Z Z Z Z Z

>  <atom.prop.IS_HEAVY_ATOM>  (1354) 
1 0 0 0 1 0 0 1 0 0 0 1 0 0 0 1 1 0 0 0

>  <DIFUSE_FUNC_ATOM>  (1354) 
n/a

>  <FINAL_SINGLE_POINT_ENERGY>  (1354) 
0

>  <NONCOV_INTER_ENERGY_QM>  (1354) 
0

>  <FF_Energy>  (1354) 
-4.73

>  <QM_Energy>  (1354) 
-11.45

>  <source>  (1354) 
ETAM_MSM

>  <Index>  (1354) 
8469

$$$$
ETAM-pdb3tw8-C-LYS-257:MSM-pdb3tw8-C-MET-266
     RDKit          3D

 20 18  0  0  0  0  0  0  0  0999 V2000
    1.3142    0.8515   -0.0000 C   0  0  0  0  0  0  0  0  0  0  0  0
    2.0789    0.2277   -0.1690 H   0  0  0  0  0  0  0  0  0  0  0  0
    1.4129    1.2550    0.9111 H   0  0  0  0  0  0  0  0  0  0  0  0
    1.3428    1.6492   -0.7423 H   0  0  0  0  0  0  0  0  0  0  0  0
    0.0000    0.0000    0.0000 C   0  0  0  0  0  0  0  0  0  0  0  0
    0.0463   -0.6276   -0.8161 H   0  0  0  0  0  0  0  0  0  0  0  0
    0.0458   -0.6277    0.8168 H   0  0  0  0  0  0  0  0  0  0  0  0
   -1.3142    0.7017    0.0000 N   0  0  0  0  0  4  0  0  0  0  0  0
   -1.2685    1.4892   -0.6132 H   0  0  0  0  0  0  0  0  0  0  0  0
   -2.0248    0.0730   -0.3139 H   0  0  0  0  0  0  0  0  0  0  0  0
   -1.5243    1.0099    0.9274 H   0  0  0  0  0  0  0  0  0  0  0  0
   -4.6164    1.1253   -3.5771 C   0  0  0  0  0  0  0  0  0  0  0  0
   -4.9251    1.6114   -4.4229 H   0  0  0  0  0  0  0  0  0  0  0  0
   -5.0845    1.5949   -2.7977 H   0  0  0  0  0  0  0  0  0  0  0  0
   -4.9813    0.0993   -3.6238 H   0  0  0  0  0  0  0  0  0  0  0  0
   -2.7973    1.2433   -3.3970 S   0  0  0  0  0  0  0  0  0  0  0  0
   -2.4331   -0.2666   -2.5131 C   0  0  0  0  0  0  0  0  0  0  0  0
   -1.5867   -0.6699   -2.8670 H   0  0  0  0  0  0  0  0  0  0  0  0
   -2.3214   -0.0685   -1.5374 H   0  0  0  0  0  0  0  0  0  0  0  0
   -3.1849   -0.9183   -2.6331 H   0  0  0  0  0  0  0  0  0  0  0  0
  1  5  1  0
  5  8  1  0
  1  2  1  0
  1  3  1  0
  1  4  1  0
  5  6  1  0
  5  7  1  0
  8  9  1  0
  8 10  1  0
  8 11  1  0
 12 16  1  0
 16 17  1  0
 12 13  1  0
 12 14  1  0
 12 15  1  0
 17 18  1  0
 17 19  1  0
 17 20  1  0
M  CHG  1   8   1
M  END
>  <PDB_ID>  (1355) 
pdb3tw8

>  <RESIDUE_NAME>  (1355) 
LYS   MET

>  <FRAG_NAME>  (1355) 
ETAM   MSM

>  <FRAG_ATOM_NUM>  (1355) 
fragi: 11  fragj: 9

>  <atom.prop.CHAIN_ID>  (1355) 
A A A A A A A A A A A Z Z Z Z Z Z Z Z Z

>  <atom.prop.IS_HEAVY_ATOM>  (1355) 
1 0 0 0 1 0 0 1 0 0 0 1 0 0 0 1 1 0 0 0

>  <DIFUSE_FUNC_ATOM>  (1355) 
n/a

>  <FINAL_SINGLE_POINT_ENERGY>  (1355) 
0

>  <NONCOV_INTER_ENERGY_QM>  (1355) 
0

>  <FF_Energy>  (1355) 
20.12

>  <QM_Energy>  (1355) 
5.91

>  <source>  (1355) 
ETAM_MSM

>  <Index>  (1355) 
8473

$$$$
ETAM-pdb4tr0-B-LYS-16:MSM-pdb4tr0-A-MET-45
     RDKit          3D

 20 18  0  0  0  0  0  0  0  0999 V2000
    1.2436    0.9514    0.0000 C   0  0  0  0  0  0  0  0  0  0  0  0
    1.2892    1.3685    0.8877 H   0  0  0  0  0  0  0  0  0  0  0  0
    1.1071    1.6074   -0.7172 H   0  0  0  0  0  0  0  0  0  0  0  0
    2.1382    0.3581   -0.1898 H   0  0  0  0  0  0  0  0  0  0  0  0
    0.0000    0.0000    0.0000 C   0  0  0  0  0  0  0  0  0  0  0  0
    0.0413   -0.5544   -0.8160 H   0  0  0  0  0  0  0  0  0  0  0  0
    0.0415   -0.5549    0.8163 H   0  0  0  0  0  0  0  0  0  0  0  0
   -1.2436    0.8199    0.0000 N   0  0  0  0  0  4  0  0  0  0  0  0
   -1.9063    0.4153    0.6287 H   0  0  0  0  0  0  0  0  0  0  0  0
   -1.0272    1.7502    0.2944 H   0  0  0  0  0  0  0  0  0  0  0  0
   -1.6256    0.8412   -0.9231 H   0  0  0  0  0  0  0  0  0  0  0  0
   -2.0643    0.1140    4.3148 C   0  0  0  0  0  0  0  0  0  0  0  0
   -1.4442   -0.5406    4.7840 H   0  0  0  0  0  0  0  0  0  0  0  0
   -2.7937    0.3567    4.9796 H   0  0  0  0  0  0  0  0  0  0  0  0
   -1.5041    1.0122    4.0553 H   0  0  0  0  0  0  0  0  0  0  0  0
   -2.8005   -0.6684    2.8309 S   0  0  0  0  0  0  0  0  0  0  0  0
   -4.1067    0.5321    2.5108 C   0  0  0  0  0  0  0  0  0  0  0  0
   -4.9862    0.1421    2.7787 H   0  0  0  0  0  0  0  0  0  0  0  0
   -3.9306    1.3606    3.0416 H   0  0  0  0  0  0  0  0  0  0  0  0
   -4.1197    0.7532    1.5367 H   0  0  0  0  0  0  0  0  0  0  0  0
  1  5  1  0
  5  8  1  0
  1  2  1  0
  1  3  1  0
  1  4  1  0
  5  6  1  0
  5  7  1  0
  8  9  1  0
  8 10  1  0
  8 11  1  0
 12 16  1  0
 16 17  1  0
 12 13  1  0
 12 14  1  0
 12 15  1  0
 17 18  1  0
 17 19  1  0
 17 20  1  0
M  CHG  1   8   1
M  END
>  <PDB_ID>  (1356) 
pdb4tr0

>  <RESIDUE_NAME>  (1356) 
LYS   MET

>  <FRAG_NAME>  (1356) 
ETAM   MSM

>  <FRAG_ATOM_NUM>  (1356) 
fragi: 11  fragj: 9

>  <atom.prop.CHAIN_ID>  (1356) 
A A A A A A A A A A A Z Z Z Z Z Z Z Z Z

>  <atom.prop.IS_HEAVY_ATOM>  (1356) 
1 0 0 0 1 0 0 1 0 0 0 1 0 0 0 1 1 0 0 0

>  <DIFUSE_FUNC_ATOM>  (1356) 
n/a

>  <FINAL_SINGLE_POINT_ENERGY>  (1356) 
0

>  <NONCOV_INTER_ENERGY_QM>  (1356) 
0

>  <FF_Energy>  (1356) 
-4.41

>  <QM_Energy>  (1356) 
-13.09

>  <source>  (1356) 
ETAM_MSM

>  <Index>  (1356) 
8475

$$$$
ETAM-pdb3u28-B-LYS-19:MSM-pdb3u28-B-MET-4
     RDKit          3D

 20 18  0  0  0  0  0  0  0  0999 V2000
    1.2235    0.8920    0.0000 C   0  0  0  0  0  0  0  0  0  0  0  0
    1.2209    1.4410    0.8255 H   0  0  0  0  0  0  0  0  0  0  0  0
    1.2022    1.4662   -0.8077 H   0  0  0  0  0  0  0  0  0  0  0  0
    2.1343    0.2935   -0.0190 H   0  0  0  0  0  0  0  0  0  0  0  0
    0.0000    0.0000    0.0000 C   0  0  0  0  0  0  0  0  0  0  0  0
    0.0128   -0.5700   -0.8164 H   0  0  0  0  0  0  0  0  0  0  0  0
    0.0120   -0.5702    0.8161 H   0  0  0  0  0  0  0  0  0  0  0  0
   -1.2235    0.8345    0.0000 N   0  0  0  0  0  4  0  0  0  0  0  0
   -1.8308    0.5379    0.7378 H   0  0  0  0  0  0  0  0  0  0  0  0
   -0.9747    1.7938    0.1394 H   0  0  0  0  0  0  0  0  0  0  0  0
   -1.6955    0.7378   -0.8773 H   0  0  0  0  0  0  0  0  0  0  0  0
   -0.4471    3.8754   -2.7911 C   0  0  0  0  0  0  0  0  0  0  0  0
   -0.9248    3.3406   -3.5300 H   0  0  0  0  0  0  0  0  0  0  0  0
    0.4108    3.3432   -2.5896 H   0  0  0  0  0  0  0  0  0  0  0  0
   -0.1556    4.8390   -3.2090 H   0  0  0  0  0  0  0  0  0  0  0  0
   -1.4890    3.9958   -1.3103 S   0  0  0  0  0  0  0  0  0  0  0  0
   -0.3391    4.6030   -0.0818 C   0  0  0  0  0  0  0  0  0  0  0  0
   -0.5653    4.2141    0.8124 H   0  0  0  0  0  0  0  0  0  0  0  0
    0.5931    4.3360   -0.3327 H   0  0  0  0  0  0  0  0  0  0  0  0
   -0.3959    5.6016   -0.0323 H   0  0  0  0  0  0  0  0  0  0  0  0
  1  5  1  0
  5  8  1  0
  1  2  1  0
  1  3  1  0
  1  4  1  0
  5  6  1  0
  5  7  1  0
  8  9  1  0
  8 10  1  0
  8 11  1  0
 12 16  1  0
 16 17  1  0
 12 13  1  0
 12 14  1  0
 12 15  1  0
 17 18  1  0
 17 19  1  0
 17 20  1  0
M  CHG  1   8   1
M  END
>  <PDB_ID>  (1357) 
pdb3u28

>  <RESIDUE_NAME>  (1357) 
LYS   MET

>  <FRAG_NAME>  (1357) 
ETAM   MSM

>  <FRAG_ATOM_NUM>  (1357) 
fragi: 11  fragj: 9

>  <atom.prop.CHAIN_ID>  (1357) 
A A A A A A A A A A A Z Z Z Z Z Z Z Z Z

>  <atom.prop.IS_HEAVY_ATOM>  (1357) 
1 0 0 0 1 0 0 1 0 0 0 1 0 0 0 1 1 0 0 0

>  <DIFUSE_FUNC_ATOM>  (1357) 
n/a

>  <FINAL_SINGLE_POINT_ENERGY>  (1357) 
0

>  <NONCOV_INTER_ENERGY_QM>  (1357) 
0

>  <FF_Energy>  (1357) 
-4.95

>  <QM_Energy>  (1357) 
-12.0

>  <source>  (1357) 
ETAM_MSM

>  <Index>  (1357) 
8481

$$$$
ETAM-pdb3u3i-A-LYS-167:MSM-pdb3u3i-A-MET-164
     RDKit          3D

 20 18  0  0  0  0  0  0  0  0999 V2000
    1.2400    0.9008    0.0000 C   0  0  0  0  0  0  0  0  0  0  0  0
    0.9780    1.7950   -0.3775 H   0  0  0  0  0  0  0  0  0  0  0  0
    1.9279    0.4867   -0.6054 H   0  0  0  0  0  0  0  0  0  0  0  0
    1.6875    1.0564    0.9816 H   0  0  0  0  0  0  0  0  0  0  0  0
    0.0000    0.0000    0.0000 C   0  0  0  0  0  0  0  0  0  0  0  0
    0.0324   -0.5809   -0.8166 H   0  0  0  0  0  0  0  0  0  0  0  0
    0.0321   -0.5816    0.8161 H   0  0  0  0  0  0  0  0  0  0  0  0
   -1.2400    0.7923    0.0000 N   0  0  0  0  0  4  0  0  0  0  0  0
   -2.0160    0.2092   -0.2478 H   0  0  0  0  0  0  0  0  0  0  0  0
   -1.3966    1.1779    0.9123 H   0  0  0  0  0  0  0  0  0  0  0  0
   -1.1663    1.5394   -0.6639 H   0  0  0  0  0  0  0  0  0  0  0  0
   -3.4217   -1.9135    3.2614 C   0  0  0  0  0  0  0  0  0  0  0  0
   -3.3286   -2.8358    2.8102 H   0  0  0  0  0  0  0  0  0  0  0  0
   -4.4091   -1.8632    3.5545 H   0  0  0  0  0  0  0  0  0  0  0  0
   -2.7840   -1.8824    4.1448 H   0  0  0  0  0  0  0  0  0  0  0  0
   -3.0592   -0.5994    2.0695 S   0  0  0  0  0  0  0  0  0  0  0  0
   -2.0689    0.6230    3.0063 C   0  0  0  0  0  0  0  0  0  0  0  0
   -2.4411    0.6924    3.9260 H   0  0  0  0  0  0  0  0  0  0  0  0
   -1.1255    0.3089    3.0367 H   0  0  0  0  0  0  0  0  0  0  0  0
   -2.1276    1.5005    2.5415 H   0  0  0  0  0  0  0  0  0  0  0  0
  1  5  1  0
  5  8  1  0
  1  2  1  0
  1  3  1  0
  1  4  1  0
  5  6  1  0
  5  7  1  0
  8  9  1  0
  8 10  1  0
  8 11  1  0
 12 16  1  0
 16 17  1  0
 12 13  1  0
 12 14  1  0
 12 15  1  0
 17 18  1  0
 17 19  1  0
 17 20  1  0
M  CHG  1   8   1
M  END
>  <PDB_ID>  (1358) 
pdb3u3i

>  <RESIDUE_NAME>  (1358) 
LYS   MET

>  <FRAG_NAME>  (1358) 
ETAM   MSM

>  <FRAG_ATOM_NUM>  (1358) 
fragi: 11  fragj: 9

>  <atom.prop.CHAIN_ID>  (1358) 
A A A A A A A A A A A Z Z Z Z Z Z Z Z Z

>  <atom.prop.IS_HEAVY_ATOM>  (1358) 
1 0 0 0 1 0 0 1 0 0 0 1 0 0 0 1 1 0 0 0

>  <DIFUSE_FUNC_ATOM>  (1358) 
n/a

>  <FINAL_SINGLE_POINT_ENERGY>  (1358) 
0

>  <NONCOV_INTER_ENERGY_QM>  (1358) 
0

>  <FF_Energy>  (1358) 
-2.37

>  <QM_Energy>  (1358) 
-9.66

>  <source>  (1358) 
ETAM_MSM

>  <Index>  (1358) 
8493

$$$$
ETAM-pdb3u49-C-LYS-145:MSM-pdb3u49-C-MET-256
     RDKit          3D

 20 18  0  0  0  0  0  0  0  0999 V2000
    1.2531    0.8623   -0.0000 C   0  0  0  0  0  0  0  0  0  0  0  0
    2.0361    0.2877    0.2259 H   0  0  0  0  0  0  0  0  0  0  0  0
    1.1466    1.5791    0.6837 H   0  0  0  0  0  0  0  0  0  0  0  0
    1.4316    1.3282   -0.9691 H   0  0  0  0  0  0  0  0  0  0  0  0
    0.0000    0.0000    0.0000 C   0  0  0  0  0  0  0  0  0  0  0  0
    0.0093   -0.5885   -0.8158 H   0  0  0  0  0  0  0  0  0  0  0  0
    0.0085   -0.5880    0.8167 H   0  0  0  0  0  0  0  0  0  0  0  0
   -1.2531    0.8114    0.0000 N   0  0  0  0  0  4  0  0  0  0  0  0
   -1.8277    0.5295    0.7674 H   0  0  0  0  0  0  0  0  0  0  0  0
   -1.0196    1.7782    0.0921 H   0  0  0  0  0  0  0  0  0  0  0  0
   -1.7413    0.6636   -0.8589 H   0  0  0  0  0  0  0  0  0  0  0  0
   -1.3703    3.7576    4.3807 C   0  0  0  0  0  0  0  0  0  0  0  0
   -0.7585    3.6442    5.1897 H   0  0  0  0  0  0  0  0  0  0  0  0
   -2.2779    3.3799    4.6541 H   0  0  0  0  0  0  0  0  0  0  0  0
   -1.4810    4.8215    4.1709 H   0  0  0  0  0  0  0  0  0  0  0  0
   -0.7122    2.8651    2.9545 S   0  0  0  0  0  0  0  0  0  0  0  0
    0.8668    3.6834    2.7402 C   0  0  0  0  0  0  0  0  0  0  0  0
    1.5957    2.9987    2.6890 H   0  0  0  0  0  0  0  0  0  0  0  0
    0.8549    4.2194    1.8946 H   0  0  0  0  0  0  0  0  0  0  0  0
    1.0371    4.2923    3.5163 H   0  0  0  0  0  0  0  0  0  0  0  0
  1  5  1  0
  5  8  1  0
  1  2  1  0
  1  3  1  0
  1  4  1  0
  5  6  1  0
  5  7  1  0
  8  9  1  0
  8 10  1  0
  8 11  1  0
 12 16  1  0
 16 17  1  0
 12 13  1  0
 12 14  1  0
 12 15  1  0
 17 18  1  0
 17 19  1  0
 17 20  1  0
M  CHG  1   8   1
M  END
>  <PDB_ID>  (1359) 
pdb3u49

>  <RESIDUE_NAME>  (1359) 
LYS   MET

>  <FRAG_NAME>  (1359) 
ETAM   MSM

>  <FRAG_ATOM_NUM>  (1359) 
fragi: 11  fragj: 9

>  <atom.prop.CHAIN_ID>  (1359) 
A A A A A A A A A A A Z Z Z Z Z Z Z Z Z

>  <atom.prop.IS_HEAVY_ATOM>  (1359) 
1 0 0 0 1 0 0 1 0 0 0 1 0 0 0 1 1 0 0 0

>  <DIFUSE_FUNC_ATOM>  (1359) 
n/a

>  <FINAL_SINGLE_POINT_ENERGY>  (1359) 
0

>  <NONCOV_INTER_ENERGY_QM>  (1359) 
0

>  <FF_Energy>  (1359) 
-5.5

>  <QM_Energy>  (1359) 
-11.58

>  <source>  (1359) 
ETAM_MSM

>  <Index>  (1359) 
8500

$$$$
ETAM-pdb3u4l-A-LYS-373:MSM-pdb3u4l-P-MET-122
     RDKit          3D

 20 18  0  0  0  0  0  0  0  0999 V2000
    1.2018    0.9320    0.0000 C   0  0  0  0  0  0  0  0  0  0  0  0
    1.0426    1.6557    0.6711 H   0  0  0  0  0  0  0  0  0  0  0  0
    1.2923    1.3339   -0.9109 H   0  0  0  0  0  0  0  0  0  0  0  0
    2.1309    0.4207    0.2516 H   0  0  0  0  0  0  0  0  0  0  0  0
    0.0000    0.0000    0.0000 C   0  0  0  0  0  0  0  0  0  0  0  0
    0.0273   -0.5548   -0.8164 H   0  0  0  0  0  0  0  0  0  0  0  0
    0.0273   -0.5554    0.8168 H   0  0  0  0  0  0  0  0  0  0  0  0
   -1.2018    0.8388   -0.0000 N   0  0  0  0  0  4  0  0  0  0  0  0
   -1.1962    1.4454    0.7988 H   0  0  0  0  0  0  0  0  0  0  0  0
   -1.2297    1.3979   -0.8331 H   0  0  0  0  0  0  0  0  0  0  0  0
   -2.0226    0.2622    0.0334 H   0  0  0  0  0  0  0  0  0  0  0  0
   -1.1206   -0.6325    4.5274 C   0  0  0  0  0  0  0  0  0  0  0  0
   -0.7875   -1.4975    4.1532 H   0  0  0  0  0  0  0  0  0  0  0  0
   -2.0317   -0.7675    4.9172 H   0  0  0  0  0  0  0  0  0  0  0  0
   -0.4358   -0.2670    5.2926 H   0  0  0  0  0  0  0  0  0  0  0  0
   -1.1887    0.6323    3.2077 S   0  0  0  0  0  0  0  0  0  0  0  0
   -1.7961    2.0329    4.1525 C   0  0  0  0  0  0  0  0  0  0  0  0
   -1.7652    2.8568    3.5864 H   0  0  0  0  0  0  0  0  0  0  0  0
   -2.7388    1.8600    4.4369 H   0  0  0  0  0  0  0  0  0  0  0  0
   -1.2224    2.1633    4.9618 H   0  0  0  0  0  0  0  0  0  0  0  0
  1  5  1  0
  5  8  1  0
  1  2  1  0
  1  3  1  0
  1  4  1  0
  5  6  1  0
  5  7  1  0
  8  9  1  0
  8 10  1  0
  8 11  1  0
 12 16  1  0
 16 17  1  0
 12 13  1  0
 12 14  1  0
 12 15  1  0
 17 18  1  0
 17 19  1  0
 17 20  1  0
M  CHG  1   8   1
M  END
>  <PDB_ID>  (1360) 
pdb3u4l

>  <RESIDUE_NAME>  (1360) 
LYS   MET

>  <FRAG_NAME>  (1360) 
ETAM   MSM

>  <FRAG_ATOM_NUM>  (1360) 
fragi: 11  fragj: 9

>  <atom.prop.CHAIN_ID>  (1360) 
A A A A A A A A A A A Z Z Z Z Z Z Z Z Z

>  <atom.prop.IS_HEAVY_ATOM>  (1360) 
1 0 0 0 1 0 0 1 0 0 0 1 0 0 0 1 1 0 0 0

>  <DIFUSE_FUNC_ATOM>  (1360) 
n/a

>  <FINAL_SINGLE_POINT_ENERGY>  (1360) 
0

>  <NONCOV_INTER_ENERGY_QM>  (1360) 
0

>  <FF_Energy>  (1360) 
-5.24

>  <QM_Energy>  (1360) 
-14.13

>  <source>  (1360) 
ETAM_MSM

>  <Index>  (1360) 
8506

$$$$
ETAM-pdb3u37-A-LYS-114:MSM-pdb3u37-A-MET-218
     RDKit          3D

 20 18  0  0  0  0  0  0  0  0999 V2000
    1.2417    0.8713    0.0000 C   0  0  0  0  0  0  0  0  0  0  0  0
    1.3161    1.3221    0.8761 H   0  0  0  0  0  0  0  0  0  0  0  0
    1.1729    1.5242   -0.7380 H   0  0  0  0  0  0  0  0  0  0  0  0
    2.1263    0.2536   -0.1550 H   0  0  0  0  0  0  0  0  0  0  0  0
    0.0000    0.0000    0.0000 C   0  0  0  0  0  0  0  0  0  0  0  0
    0.0134   -0.5850   -0.8165 H   0  0  0  0  0  0  0  0  0  0  0  0
    0.0128   -0.5851    0.8164 H   0  0  0  0  0  0  0  0  0  0  0  0
   -1.2417    0.8105   -0.0000 N   0  0  0  0  0  4  0  0  0  0  0  0
   -2.0033    0.2556   -0.3371 H   0  0  0  0  0  0  0  0  0  0  0  0
   -1.4400    1.1178    0.9310 H   0  0  0  0  0  0  0  0  0  0  0  0
   -1.1214    1.6056   -0.5947 H   0  0  0  0  0  0  0  0  0  0  0  0
   -0.0537    4.4189   -2.3763 C   0  0  0  0  0  0  0  0  0  0  0  0
    0.3786    4.9816   -1.6412 H   0  0  0  0  0  0  0  0  0  0  0  0
   -0.9964    4.2007   -2.0472 H   0  0  0  0  0  0  0  0  0  0  0  0
   -0.1281    5.0219   -3.2813 H   0  0  0  0  0  0  0  0  0  0  0  0
    0.8886    2.9058   -2.6558 S   0  0  0  0  0  0  0  0  0  0  0  0
    2.5773    3.5140   -2.6177 C   0  0  0  0  0  0  0  0  0  0  0  0
    3.1912    2.7768   -2.3335 H   0  0  0  0  0  0  0  0  0  0  0  0
    2.8382    3.8316   -3.5296 H   0  0  0  0  0  0  0  0  0  0  0  0
    2.6444    4.2726   -1.9688 H   0  0  0  0  0  0  0  0  0  0  0  0
  1  5  1  0
  5  8  1  0
  1  2  1  0
  1  3  1  0
  1  4  1  0
  5  6  1  0
  5  7  1  0
  8  9  1  0
  8 10  1  0
  8 11  1  0
 12 16  1  0
 16 17  1  0
 12 13  1  0
 12 14  1  0
 12 15  1  0
 17 18  1  0
 17 19  1  0
 17 20  1  0
M  CHG  1   8   1
M  END
>  <PDB_ID>  (1361) 
pdb3u37

>  <RESIDUE_NAME>  (1361) 
LYS   MET

>  <FRAG_NAME>  (1361) 
ETAM   MSM

>  <FRAG_ATOM_NUM>  (1361) 
fragi: 11  fragj: 9

>  <atom.prop.CHAIN_ID>  (1361) 
A A A A A A A A A A A Z Z Z Z Z Z Z Z Z

>  <atom.prop.IS_HEAVY_ATOM>  (1361) 
1 0 0 0 1 0 0 1 0 0 0 1 0 0 0 1 1 0 0 0

>  <DIFUSE_FUNC_ATOM>  (1361) 
n/a

>  <FINAL_SINGLE_POINT_ENERGY>  (1361) 
0

>  <NONCOV_INTER_ENERGY_QM>  (1361) 
0

>  <FF_Energy>  (1361) 
0.44

>  <QM_Energy>  (1361) 
-6.9

>  <source>  (1361) 
ETAM_MSM

>  <Index>  (1361) 
8509

$$$$
ETAM-pdb3ub6-A-LYS-197:MSM-pdb3ub6-A-MET-44
     RDKit          3D

 20 18  0  0  0  0  0  0  0  0999 V2000
    1.2303    0.8858    0.0000 C   0  0  0  0  0  0  0  0  0  0  0  0
    1.2179    1.4541    0.8168 H   0  0  0  0  0  0  0  0  0  0  0  0
    1.2169    1.4542   -0.8164 H   0  0  0  0  0  0  0  0  0  0  0  0
    2.1488    0.2989    0.0003 H   0  0  0  0  0  0  0  0  0  0  0  0
    0.0000    0.0000    0.0000 C   0  0  0  0  0  0  0  0  0  0  0  0
    0.0089   -0.5721   -0.8164 H   0  0  0  0  0  0  0  0  0  0  0  0
    0.0093   -0.5721    0.8161 H   0  0  0  0  0  0  0  0  0  0  0  0
   -1.2303    0.8362    0.0000 N   0  0  0  0  0  4  0  0  0  0  0  0
   -1.2480    1.4020   -0.8241 H   0  0  0  0  0  0  0  0  0  0  0  0
   -2.0349    0.2429    0.0147 H   0  0  0  0  0  0  0  0  0  0  0  0
   -1.2335    1.4229    0.8093 H   0  0  0  0  0  0  0  0  0  0  0  0
    1.4128   -4.3273    3.1172 C   0  0  0  0  0  0  0  0  0  0  0  0
    1.9039   -5.2198    3.2969 H   0  0  0  0  0  0  0  0  0  0  0  0
    0.6695   -4.5758    2.4427 H   0  0  0  0  0  0  0  0  0  0  0  0
    0.9368   -4.0107    4.0452 H   0  0  0  0  0  0  0  0  0  0  0  0
    2.5537   -3.1125    2.3828 S   0  0  0  0  0  0  0  0  0  0  0  0
    1.3557   -1.7553    2.2097 C   0  0  0  0  0  0  0  0  0  0  0  0
    1.6773   -0.9723    2.7358 H   0  0  0  0  0  0  0  0  0  0  0  0
    1.2813   -1.5127    1.2461 H   0  0  0  0  0  0  0  0  0  0  0  0
    0.4712   -2.0597    2.5550 H   0  0  0  0  0  0  0  0  0  0  0  0
  1  5  1  0
  5  8  1  0
  1  2  1  0
  1  3  1  0
  1  4  1  0
  5  6  1  0
  5  7  1  0
  8  9  1  0
  8 10  1  0
  8 11  1  0
 12 16  1  0
 16 17  1  0
 12 13  1  0
 12 14  1  0
 12 15  1  0
 17 18  1  0
 17 19  1  0
 17 20  1  0
M  CHG  1   8   1
M  END
>  <PDB_ID>  (1362) 
pdb3ub6

>  <RESIDUE_NAME>  (1362) 
LYS   MET

>  <FRAG_NAME>  (1362) 
ETAM   MSM

>  <FRAG_ATOM_NUM>  (1362) 
fragi: 11  fragj: 9

>  <atom.prop.CHAIN_ID>  (1362) 
A A A A A A A A A A A Z Z Z Z Z Z Z Z Z

>  <atom.prop.IS_HEAVY_ATOM>  (1362) 
1 0 0 0 1 0 0 1 0 0 0 1 0 0 0 1 1 0 0 0

>  <DIFUSE_FUNC_ATOM>  (1362) 
n/a

>  <FINAL_SINGLE_POINT_ENERGY>  (1362) 
0

>  <NONCOV_INTER_ENERGY_QM>  (1362) 
0

>  <FF_Energy>  (1362) 
18.05

>  <QM_Energy>  (1362) 
4.03

>  <source>  (1362) 
ETAM_MSM

>  <Index>  (1362) 
8524

$$$$
ETAM-pdb4u1s-A-LYS-121:MSM-pdb4u1s-B-MET-0
     RDKit          3D

 20 18  0  0  0  0  0  0  0  0999 V2000
    1.2916    0.8202   -0.0000 C   0  0  0  0  0  0  0  0  0  0  0  0
    1.3229    1.3600   -0.8552 H   0  0  0  0  0  0  0  0  0  0  0  0
    2.0734    0.1788   -0.0141 H   0  0  0  0  0  0  0  0  0  0  0  0
    1.4247    1.5026    0.8394 H   0  0  0  0  0  0  0  0  0  0  0  0
    0.0000    0.0000    0.0000 C   0  0  0  0  0  0  0  0  0  0  0  0
    0.0056   -0.6139   -0.8159 H   0  0  0  0  0  0  0  0  0  0  0  0
    0.0058   -0.6138    0.8165 H   0  0  0  0  0  0  0  0  0  0  0  0
   -1.2916    0.7765   -0.0000 N   0  0  0  0  0  4  0  0  0  0  0  0
   -1.1014    1.7189   -0.2634 H   0  0  0  0  0  0  0  0  0  0  0  0
   -1.9183    0.3588   -0.6525 H   0  0  0  0  0  0  0  0  0  0  0  0
   -1.6841    0.7502    0.9159 H   0  0  0  0  0  0  0  0  0  0  0  0
   -1.1430    2.3630   -4.0400 C   0  0  0  0  0  0  0  0  0  0  0  0
   -0.5910    2.4950   -4.9315 H   0  0  0  0  0  0  0  0  0  0  0  0
   -0.6850    3.0756   -3.4086 H   0  0  0  0  0  0  0  0  0  0  0  0
   -2.1531    2.7209   -4.2399 H   0  0  0  0  0  0  0  0  0  0  0  0
   -0.8843    0.6779   -3.3802 S   0  0  0  0  0  0  0  0  0  0  0  0
    0.7747    0.2599   -3.9261 C   0  0  0  0  0  0  0  0  0  0  0  0
    0.8313    0.3523   -4.9200 H   0  0  0  0  0  0  0  0  0  0  0  0
    1.4329    0.8770   -3.4955 H   0  0  0  0  0  0  0  0  0  0  0  0
    0.9835   -0.6837   -3.6667 H   0  0  0  0  0  0  0  0  0  0  0  0
  1  5  1  0
  5  8  1  0
  1  2  1  0
  1  3  1  0
  1  4  1  0
  5  6  1  0
  5  7  1  0
  8  9  1  0
  8 10  1  0
  8 11  1  0
 12 16  1  0
 16 17  1  0
 12 13  1  0
 12 14  1  0
 12 15  1  0
 17 18  1  0
 17 19  1  0
 17 20  1  0
M  CHG  1   8   1
M  END
>  <PDB_ID>  (1363) 
pdb4u1s

>  <RESIDUE_NAME>  (1363) 
LYS   MET

>  <FRAG_NAME>  (1363) 
ETAM   MSM

>  <FRAG_ATOM_NUM>  (1363) 
fragi: 11  fragj: 9

>  <atom.prop.CHAIN_ID>  (1363) 
A A A A A A A A A A A Z Z Z Z Z Z Z Z Z

>  <atom.prop.IS_HEAVY_ATOM>  (1363) 
1 0 0 0 1 0 0 1 0 0 0 1 0 0 0 1 1 0 0 0

>  <DIFUSE_FUNC_ATOM>  (1363) 
n/a

>  <FINAL_SINGLE_POINT_ENERGY>  (1363) 
0

>  <NONCOV_INTER_ENERGY_QM>  (1363) 
0

>  <FF_Energy>  (1363) 
-5.63

>  <QM_Energy>  (1363) 
-13.62

>  <source>  (1363) 
ETAM_MSM

>  <Index>  (1363) 
8529

$$$$
ETAM-pdb4u0t-C-LYS-80:MSM-pdb4u0t-C-MET-166
     RDKit          3D

 20 18  0  0  0  0  0  0  0  0999 V2000
    1.2314    0.8753    0.0000 C   0  0  0  0  0  0  0  0  0  0  0  0
    1.2164    1.4526    0.8159 H   0  0  0  0  0  0  0  0  0  0  0  0
    1.2159    1.4522   -0.8176 H   0  0  0  0  0  0  0  0  0  0  0  0
    2.1546    0.2959    0.0002 H   0  0  0  0  0  0  0  0  0  0  0  0
    0.0000    0.0000    0.0000 C   0  0  0  0  0  0  0  0  0  0  0  0
    0.0063   -0.5775   -0.8161 H   0  0  0  0  0  0  0  0  0  0  0  0
    0.0069   -0.5771    0.8174 H   0  0  0  0  0  0  0  0  0  0  0  0
   -1.2314    0.8306    0.0000 N   0  0  0  0  0  4  0  0  0  0  0  0
   -0.9811    1.7984    0.0452 H   0  0  0  0  0  0  0  0  0  0  0  0
   -1.7490    0.6588   -0.8385 H   0  0  0  0  0  0  0  0  0  0  0  0
   -1.7928    0.5940    0.7933 H   0  0  0  0  0  0  0  0  0  0  0  0
   -3.8571   -1.0466    1.7589 C   0  0  0  0  0  0  0  0  0  0  0  0
   -3.0273   -0.4549    1.9158 H   0  0  0  0  0  0  0  0  0  0  0  0
   -3.6432   -1.9294    2.2478 H   0  0  0  0  0  0  0  0  0  0  0  0
   -4.7110   -0.5788    2.2489 H   0  0  0  0  0  0  0  0  0  0  0  0
   -4.1106   -1.3356    0.0073 S   0  0  0  0  0  0  0  0  0  0  0  0
   -4.1538    0.3872   -0.4893 C   0  0  0  0  0  0  0  0  0  0  0  0
   -4.5548    0.9371    0.2443 H   0  0  0  0  0  0  0  0  0  0  0  0
   -3.2236    0.7060   -0.6736 H   0  0  0  0  0  0  0  0  0  0  0  0
   -4.7077    0.4831   -1.3175 H   0  0  0  0  0  0  0  0  0  0  0  0
  1  5  1  0
  5  8  1  0
  1  2  1  0
  1  3  1  0
  1  4  1  0
  5  6  1  0
  5  7  1  0
  8  9  1  0
  8 10  1  0
  8 11  1  0
 12 16  1  0
 16 17  1  0
 12 13  1  0
 12 14  1  0
 12 15  1  0
 17 18  1  0
 17 19  1  0
 17 20  1  0
M  CHG  1   8   1
M  END
>  <PDB_ID>  (1364) 
pdb4u0t

>  <RESIDUE_NAME>  (1364) 
LYS   MET

>  <FRAG_NAME>  (1364) 
ETAM   MSM

>  <FRAG_ATOM_NUM>  (1364) 
fragi: 11  fragj: 9

>  <atom.prop.CHAIN_ID>  (1364) 
A A A A A A A A A A A Z Z Z Z Z Z Z Z Z

>  <atom.prop.IS_HEAVY_ATOM>  (1364) 
1 0 0 0 1 0 0 1 0 0 0 1 0 0 0 1 1 0 0 0

>  <DIFUSE_FUNC_ATOM>  (1364) 
n/a

>  <FINAL_SINGLE_POINT_ENERGY>  (1364) 
0

>  <NONCOV_INTER_ENERGY_QM>  (1364) 
0

>  <FF_Energy>  (1364) 
10.18

>  <QM_Energy>  (1364) 
2.6

>  <source>  (1364) 
ETAM_MSM

>  <Index>  (1364) 
8536

$$$$
ETAM-pdb3uce-B-LYS-122:MSM-pdb3uce-B-MET-118
     RDKit          3D

 20 18  0  0  0  0  0  0  0  0999 V2000
    1.2479    0.8782   -0.0000 C   0  0  0  0  0  0  0  0  0  0  0  0
    1.2324    1.4204   -0.8040 H   0  0  0  0  0  0  0  0  0  0  0  0
    2.0241    0.2954   -0.0081 H   0  0  0  0  0  0  0  0  0  0  0  0
    1.3060    1.5339    0.8688 H   0  0  0  0  0  0  0  0  0  0  0  0
    0.0000    0.0000    0.0000 C   0  0  0  0  0  0  0  0  0  0  0  0
    0.0007   -0.5554   -0.7946 H   0  0  0  0  0  0  0  0  0  0  0  0
    0.0015   -0.5555    0.7953 H   0  0  0  0  0  0  0  0  0  0  0  0
   -1.2479    0.8028    0.0000 N   0  0  0  0  0  4  0  0  0  0  0  0
   -1.2771    1.3198    0.7243 H   0  0  0  0  0  0  0  0  0  0  0  0
   -1.2776    1.3193   -0.7243 H   0  0  0  0  0  0  0  0  0  0  0  0
   -1.9565    0.2648    0.0002 H   0  0  0  0  0  0  0  0  0  0  0  0
    5.9051    1.5245   -2.9132 C   0  0  0  0  0  0  0  0  0  0  0  0
    6.4331    1.4491   -3.7237 H   0  0  0  0  0  0  0  0  0  0  0  0
    6.3582    1.0783   -2.1798 H   0  0  0  0  0  0  0  0  0  0  0  0
    5.7841    2.5791   -2.6655 H   0  0  0  0  0  0  0  0  0  0  0  0
    4.3363    0.6830   -3.1913 S   0  0  0  0  0  0  0  0  0  0  0  0
    3.5630    1.1524   -1.6460 C   0  0  0  0  0  0  0  0  0  0  0  0
    2.6797    0.7782   -1.6134 H   0  0  0  0  0  0  0  0  0  0  0  0
    4.0896    0.8139   -0.9177 H   0  0  0  0  0  0  0  0  0  0  0  0
    3.5158    2.1102   -1.5982 H   0  0  0  0  0  0  0  0  0  0  0  0
  1  5  1  0
  5  8  1  0
  1  2  1  0
  1  3  1  0
  1  4  1  0
  5  6  1  0
  5  7  1  0
  8  9  1  0
  8 10  1  0
  8 11  1  0
 12 16  1  0
 16 17  1  0
 12 13  1  0
 12 14  1  0
 12 15  1  0
 17 18  1  0
 17 19  1  0
 17 20  1  0
M  CHG  1   8   1
M  END
>  <PDB_ID>  (1365) 
pdb3uce

>  <RESIDUE_NAME>  (1365) 
LYS   MET

>  <FRAG_NAME>  (1365) 
ETAM   MSM

>  <FRAG_ATOM_NUM>  (1365) 
fragi: 11  fragj: 9

>  <atom.prop.CHAIN_ID>  (1365) 
A A A A A A A A A A A Z Z Z Z Z Z Z Z Z

>  <atom.prop.IS_HEAVY_ATOM>  (1365) 
1 0 0 0 1 0 0 1 0 0 0 1 0 0 0 1 1 0 0 0

>  <DIFUSE_FUNC_ATOM>  (1365) 
n/a

>  <FINAL_SINGLE_POINT_ENERGY>  (1365) 
0

>  <NONCOV_INTER_ENERGY_QM>  (1365) 
0

>  <FF_Energy>  (1365) 
20.26

>  <QM_Energy>  (1365) 
7.39

>  <source>  (1365) 
ETAM_MSM

>  <Index>  (1365) 
8539

$$$$
ETAM-pdb3u37-C-LYS-114:MSM-pdb3u37-C-MET-218
     RDKit          3D

 20 18  0  0  0  0  0  0  0  0999 V2000
    1.2500    0.8683   -0.0000 C   0  0  0  0  0  0  0  0  0  0  0  0
    1.2788    1.3830    0.8509 H   0  0  0  0  0  0  0  0  0  0  0  0
    1.2054    1.4880   -0.7773 H   0  0  0  0  0  0  0  0  0  0  0  0
    2.1572    0.2692   -0.0787 H   0  0  0  0  0  0  0  0  0  0  0  0
    0.0000    0.0000    0.0000 C   0  0  0  0  0  0  0  0  0  0  0  0
    0.0131   -0.5870   -0.8161 H   0  0  0  0  0  0  0  0  0  0  0  0
    0.0125   -0.5874    0.8160 H   0  0  0  0  0  0  0  0  0  0  0  0
   -1.2500    0.8084   -0.0000 N   0  0  0  0  0  4  0  0  0  0  0  0
   -1.2236    1.4587   -0.7581 H   0  0  0  0  0  0  0  0  0  0  0  0
   -2.0374    0.2016   -0.1067 H   0  0  0  0  0  0  0  0  0  0  0  0
   -1.3240    1.3047    0.8648 H   0  0  0  0  0  0  0  0  0  0  0  0
   -0.9548    2.4065   -3.7716 C   0  0  0  0  0  0  0  0  0  0  0  0
   -1.8431    2.8169   -3.4459 H   0  0  0  0  0  0  0  0  0  0  0  0
   -1.1265    1.3897   -3.7904 H   0  0  0  0  0  0  0  0  0  0  0  0
   -0.7758    2.7438   -4.7926 H   0  0  0  0  0  0  0  0  0  0  0  0
    0.3860    2.8022   -2.6243 S   0  0  0  0  0  0  0  0  0  0  0  0
    1.8234    2.0936   -3.4424 C   0  0  0  0  0  0  0  0  0  0  0  0
    1.5377    1.6522   -4.2925 H   0  0  0  0  0  0  0  0  0  0  0  0
    2.4799    2.8199   -3.6465 H   0  0  0  0  0  0  0  0  0  0  0  0
    2.2483    1.4175   -2.8403 H   0  0  0  0  0  0  0  0  0  0  0  0
  1  5  1  0
  5  8  1  0
  1  2  1  0
  1  3  1  0
  1  4  1  0
  5  6  1  0
  5  7  1  0
  8  9  1  0
  8 10  1  0
  8 11  1  0
 12 16  1  0
 16 17  1  0
 12 13  1  0
 12 14  1  0
 12 15  1  0
 17 18  1  0
 17 19  1  0
 17 20  1  0
M  CHG  1   8   1
M  END
>  <PDB_ID>  (1366) 
pdb3u37

>  <RESIDUE_NAME>  (1366) 
LYS   MET

>  <FRAG_NAME>  (1366) 
ETAM   MSM

>  <FRAG_ATOM_NUM>  (1366) 
fragi: 11  fragj: 9

>  <atom.prop.CHAIN_ID>  (1366) 
A A A A A A A A A A A Z Z Z Z Z Z Z Z Z

>  <atom.prop.IS_HEAVY_ATOM>  (1366) 
1 0 0 0 1 0 0 1 0 0 0 1 0 0 0 1 1 0 0 0

>  <DIFUSE_FUNC_ATOM>  (1366) 
n/a

>  <FINAL_SINGLE_POINT_ENERGY>  (1366) 
0

>  <NONCOV_INTER_ENERGY_QM>  (1366) 
0

>  <FF_Energy>  (1366) 
-0.46

>  <QM_Energy>  (1366) 
-9.59

>  <source>  (1366) 
ETAM_MSM

>  <Index>  (1366) 
8545

$$$$
ETAM-pdb4tzo-E-LYS-67:MSM-pdb4tzo-E-MET-77
     RDKit          3D

 20 18  0  0  0  0  0  0  0  0999 V2000
    1.2629    0.8591    0.0000 C   0  0  0  0  0  0  0  0  0  0  0  0
    1.4844    1.0947    0.9382 H   0  0  0  0  0  0  0  0  0  0  0  0
    1.0884    1.6760   -0.5356 H   0  0  0  0  0  0  0  0  0  0  0  0
    2.1043    0.3217   -0.4373 H   0  0  0  0  0  0  0  0  0  0  0  0
    0.0000    0.0000    0.0000 C   0  0  0  0  0  0  0  0  0  0  0  0
    0.0120   -0.5930   -0.8167 H   0  0  0  0  0  0  0  0  0  0  0  0
    0.0116   -0.5927    0.8161 H   0  0  0  0  0  0  0  0  0  0  0  0
   -1.2629    0.8005    0.0000 N   0  0  0  0  0  4  0  0  0  0  0  0
   -1.0765    1.7074    0.3746 H   0  0  0  0  0  0  0  0  0  0  0  0
   -1.5981    0.8842   -0.9368 H   0  0  0  0  0  0  0  0  0  0  0  0
   -1.9453    0.3371    0.5627 H   0  0  0  0  0  0  0  0  0  0  0  0
   -0.6150    2.4544   -4.0693 C   0  0  0  0  0  0  0  0  0  0  0  0
   -1.2870    2.6968   -3.3287 H   0  0  0  0  0  0  0  0  0  0  0  0
   -1.1881    2.0676   -4.8312 H   0  0  0  0  0  0  0  0  0  0  0  0
   -0.1482    3.3736   -4.4229 H   0  0  0  0  0  0  0  0  0  0  0  0
    0.5696    1.2331   -3.4805 S   0  0  0  0  0  0  0  0  0  0  0  0
    1.3676    0.7516   -5.0109 C   0  0  0  0  0  0  0  0  0  0  0  0
    2.1502    0.1613   -4.8099 H   0  0  0  0  0  0  0  0  0  0  0  0
    0.7165    0.2555   -5.5868 H   0  0  0  0  0  0  0  0  0  0  0  0
    1.6839    1.5683   -5.4961 H   0  0  0  0  0  0  0  0  0  0  0  0
  1  5  1  0
  5  8  1  0
  1  2  1  0
  1  3  1  0
  1  4  1  0
  5  6  1  0
  5  7  1  0
  8  9  1  0
  8 10  1  0
  8 11  1  0
 12 16  1  0
 16 17  1  0
 12 13  1  0
 12 14  1  0
 12 15  1  0
 17 18  1  0
 17 19  1  0
 17 20  1  0
M  CHG  1   8   1
M  END
>  <PDB_ID>  (1367) 
pdb4tzo

>  <RESIDUE_NAME>  (1367) 
LYS   MET

>  <FRAG_NAME>  (1367) 
ETAM   MSM

>  <FRAG_ATOM_NUM>  (1367) 
fragi: 11  fragj: 9

>  <atom.prop.CHAIN_ID>  (1367) 
A A A A A A A A A A A Z Z Z Z Z Z Z Z Z

>  <atom.prop.IS_HEAVY_ATOM>  (1367) 
1 0 0 0 1 0 0 1 0 0 0 1 0 0 0 1 1 0 0 0

>  <DIFUSE_FUNC_ATOM>  (1367) 
n/a

>  <FINAL_SINGLE_POINT_ENERGY>  (1367) 
0

>  <NONCOV_INTER_ENERGY_QM>  (1367) 
0

>  <FF_Energy>  (1367) 
-4.48

>  <QM_Energy>  (1367) 
-9.5

>  <source>  (1367) 
ETAM_MSM

>  <Index>  (1367) 
8557

$$$$
ETAM-pdb4u4p-B-LYS-659:MSM-pdb4u4p-A-MET-633
     RDKit          3D

 20 18  0  0  0  0  0  0  0  0999 V2000
    1.2482    0.9087    0.0000 C   0  0  0  0  0  0  0  0  0  0  0  0
    1.1469    1.5724    0.7379 H   0  0  0  0  0  0  0  0  0  0  0  0
    1.2873    1.3791   -0.8783 H   0  0  0  0  0  0  0  0  0  0  0  0
    2.1747    0.3540    0.1473 H   0  0  0  0  0  0  0  0  0  0  0  0
    0.0000    0.0000    0.0000 C   0  0  0  0  0  0  0  0  0  0  0  0
    0.0253   -0.5705   -0.8168 H   0  0  0  0  0  0  0  0  0  0  0  0
    0.0245   -0.5702    0.8168 H   0  0  0  0  0  0  0  0  0  0  0  0
   -1.2482    0.8177    0.0000 N   0  0  0  0  0  4  0  0  0  0  0  0
   -1.4436    1.1214    0.9316 H   0  0  0  0  0  0  0  0  0  0  0  0
   -1.1226    1.6112   -0.5935 H   0  0  0  0  0  0  0  0  0  0  0  0
   -2.0062    0.2622   -0.3381 H   0  0  0  0  0  0  0  0  0  0  0  0
   -5.5217    1.8012    1.0499 C   0  0  0  0  0  0  0  0  0  0  0  0
   -6.0487    0.9796    1.3327 H   0  0  0  0  0  0  0  0  0  0  0  0
   -5.2206    1.6422    0.0918 H   0  0  0  0  0  0  0  0  0  0  0  0
   -6.1829    2.6675    1.0721 H   0  0  0  0  0  0  0  0  0  0  0  0
   -4.0998    2.0531    2.1329 S   0  0  0  0  0  0  0  0  0  0  0  0
   -4.8712    3.0529    3.4052 C   0  0  0  0  0  0  0  0  0  0  0  0
   -5.5223    3.6857    2.9849 H   0  0  0  0  0  0  0  0  0  0  0  0
   -5.3536    2.4597    4.0512 H   0  0  0  0  0  0  0  0  0  0  0  0
   -4.1693    3.5745    3.8930 H   0  0  0  0  0  0  0  0  0  0  0  0
  1  5  1  0
  5  8  1  0
  1  2  1  0
  1  3  1  0
  1  4  1  0
  5  6  1  0
  5  7  1  0
  8  9  1  0
  8 10  1  0
  8 11  1  0
 12 16  1  0
 16 17  1  0
 12 13  1  0
 12 14  1  0
 12 15  1  0
 17 18  1  0
 17 19  1  0
 17 20  1  0
M  CHG  1   8   1
M  END
>  <PDB_ID>  (1368) 
pdb4u4p

>  <RESIDUE_NAME>  (1368) 
LYS   MET

>  <FRAG_NAME>  (1368) 
ETAM   MSM

>  <FRAG_ATOM_NUM>  (1368) 
fragi: 11  fragj: 9

>  <atom.prop.CHAIN_ID>  (1368) 
A A A A A A A A A A A Z Z Z Z Z Z Z Z Z

>  <atom.prop.IS_HEAVY_ATOM>  (1368) 
1 0 0 0 1 0 0 1 0 0 0 1 0 0 0 1 1 0 0 0

>  <DIFUSE_FUNC_ATOM>  (1368) 
n/a

>  <FINAL_SINGLE_POINT_ENERGY>  (1368) 
0

>  <NONCOV_INTER_ENERGY_QM>  (1368) 
0

>  <FF_Energy>  (1368) 
-4.51

>  <QM_Energy>  (1368) 
-9.91

>  <source>  (1368) 
ETAM_MSM

>  <Index>  (1368) 
8558

$$$$
ETAM-pdb3ufx-A-LYS-42:MSM-pdb3ufx-A-MET-45
     RDKit          3D

 20 18  0  0  0  0  0  0  0  0999 V2000
    1.2598    0.8872   -0.0000 C   0  0  0  0  0  0  0  0  0  0  0  0
    1.3363    1.3195   -0.8907 H   0  0  0  0  0  0  0  0  0  0  0  0
    2.0470    0.3098    0.1784 H   0  0  0  0  0  0  0  0  0  0  0  0
    1.2090    1.6623    0.7647 H   0  0  0  0  0  0  0  0  0  0  0  0
    0.0000    0.0000    0.0000 C   0  0  0  0  0  0  0  0  0  0  0  0
    0.0193   -0.5805   -0.8159 H   0  0  0  0  0  0  0  0  0  0  0  0
    0.0192   -0.5802    0.8159 H   0  0  0  0  0  0  0  0  0  0  0  0
   -1.2598    0.8102   -0.0000 N   0  0  0  0  0  4  0  0  0  0  0  0
   -2.0303    0.2157    0.2211 H   0  0  0  0  0  0  0  0  0  0  0  0
   -1.1834    1.5330    0.6838 H   0  0  0  0  0  0  0  0  0  0  0  0
   -1.3898    1.2116   -0.9044 H   0  0  0  0  0  0  0  0  0  0  0  0
    4.3004    2.6658   -2.8418 C   0  0  0  0  0  0  0  0  0  0  0  0
    4.4791    2.5478   -3.8400 H   0  0  0  0  0  0  0  0  0  0  0  0
    4.8432    1.9416   -2.3684 H   0  0  0  0  0  0  0  0  0  0  0  0
    4.6889    3.6378   -2.5379 H   0  0  0  0  0  0  0  0  0  0  0  0
    2.5175    2.4690   -2.4820 S   0  0  0  0  0  0  0  0  0  0  0  0
    1.7872    3.7443   -3.5036 C   0  0  0  0  0  0  0  0  0  0  0  0
    1.7021    3.4132   -4.4447 H   0  0  0  0  0  0  0  0  0  0  0  0
    0.8796    3.9791   -3.1511 H   0  0  0  0  0  0  0  0  0  0  0  0
    2.3682    4.5595   -3.4909 H   0  0  0  0  0  0  0  0  0  0  0  0
  1  5  1  0
  5  8  1  0
  1  2  1  0
  1  3  1  0
  1  4  1  0
  5  6  1  0
  5  7  1  0
  8  9  1  0
  8 10  1  0
  8 11  1  0
 12 16  1  0
 16 17  1  0
 12 13  1  0
 12 14  1  0
 12 15  1  0
 17 18  1  0
 17 19  1  0
 17 20  1  0
M  CHG  1   8   1
M  END
>  <PDB_ID>  (1369) 
pdb3ufx

>  <RESIDUE_NAME>  (1369) 
LYS   MET

>  <FRAG_NAME>  (1369) 
ETAM   MSM

>  <FRAG_ATOM_NUM>  (1369) 
fragi: 11  fragj: 9

>  <atom.prop.CHAIN_ID>  (1369) 
A A A A A A A A A A A Z Z Z Z Z Z Z Z Z

>  <atom.prop.IS_HEAVY_ATOM>  (1369) 
1 0 0 0 1 0 0 1 0 0 0 1 0 0 0 1 1 0 0 0

>  <DIFUSE_FUNC_ATOM>  (1369) 
n/a

>  <FINAL_SINGLE_POINT_ENERGY>  (1369) 
0

>  <NONCOV_INTER_ENERGY_QM>  (1369) 
0

>  <FF_Energy>  (1369) 
5.41

>  <QM_Energy>  (1369) 
-2.95

>  <source>  (1369) 
ETAM_MSM

>  <Index>  (1369) 
8560

$$$$
ETAM-pdb3ugu-A-LYS-298:MSM-pdb3ugu-A-MET-131
     RDKit          3D

 20 18  0  0  0  0  0  0  0  0999 V2000
    1.2501    0.8704   -0.0000 C   0  0  0  0  0  0  0  0  0  0  0  0
    1.2771    1.3870    0.8540 H   0  0  0  0  0  0  0  0  0  0  0  0
    1.1983    1.4991   -0.7735 H   0  0  0  0  0  0  0  0  0  0  0  0
    2.1656    0.2848   -0.0839 H   0  0  0  0  0  0  0  0  0  0  0  0
    0.0000    0.0000    0.0000 C   0  0  0  0  0  0  0  0  0  0  0  0
    0.0079   -0.5811   -0.8166 H   0  0  0  0  0  0  0  0  0  0  0  0
    0.0076   -0.5819    0.8166 H   0  0  0  0  0  0  0  0  0  0  0  0
   -1.2501    0.8230   -0.0000 N   0  0  0  0  0  4  0  0  0  0  0  0
   -1.8122    0.5641   -0.7829 H   0  0  0  0  0  0  0  0  0  0  0  0
   -1.7519    0.6553    0.8463 H   0  0  0  0  0  0  0  0  0  0  0  0
   -1.0058    1.7893   -0.0628 H   0  0  0  0  0  0  0  0  0  0  0  0
    0.8588    4.9379    3.0010 C   0  0  0  0  0  0  0  0  0  0  0  0
    1.6710    5.4256    3.3521 H   0  0  0  0  0  0  0  0  0  0  0  0
    0.6326    4.2029    3.6558 H   0  0  0  0  0  0  0  0  0  0  0  0
    0.0211    5.6314    2.9258 H   0  0  0  0  0  0  0  0  0  0  0  0
    1.2006    4.2417    1.3646 S   0  0  0  0  0  0  0  0  0  0  0  0
    1.7551    5.6983    0.4805 C   0  0  0  0  0  0  0  0  0  0  0  0
    2.6309    6.0053    0.8559 H   0  0  0  0  0  0  0  0  0  0  0  0
    1.8692    5.4794   -0.4892 H   0  0  0  0  0  0  0  0  0  0  0  0
    1.0774    6.4280    0.5788 H   0  0  0  0  0  0  0  0  0  0  0  0
  1  5  1  0
  5  8  1  0
  1  2  1  0
  1  3  1  0
  1  4  1  0
  5  6  1  0
  5  7  1  0
  8  9  1  0
  8 10  1  0
  8 11  1  0
 12 16  1  0
 16 17  1  0
 12 13  1  0
 12 14  1  0
 12 15  1  0
 17 18  1  0
 17 19  1  0
 17 20  1  0
M  CHG  1   8   1
M  END
>  <PDB_ID>  (1370) 
pdb3ugu

>  <RESIDUE_NAME>  (1370) 
LYS   MET

>  <FRAG_NAME>  (1370) 
ETAM   MSM

>  <FRAG_ATOM_NUM>  (1370) 
fragi: 11  fragj: 9

>  <atom.prop.CHAIN_ID>  (1370) 
A A A A A A A A A A A Z Z Z Z Z Z Z Z Z

>  <atom.prop.IS_HEAVY_ATOM>  (1370) 
1 0 0 0 1 0 0 1 0 0 0 1 0 0 0 1 1 0 0 0

>  <DIFUSE_FUNC_ATOM>  (1370) 
n/a

>  <FINAL_SINGLE_POINT_ENERGY>  (1370) 
0

>  <NONCOV_INTER_ENERGY_QM>  (1370) 
0

>  <FF_Energy>  (1370) 
-3.88

>  <QM_Energy>  (1370) 
-8.94

>  <source>  (1370) 
ETAM_MSM

>  <Index>  (1370) 
8571

$$$$
ETAM-pdb3ung-C-LYS-355:MSM-pdb3ung-C-MET-461
     RDKit          3D

 20 18  0  0  0  0  0  0  0  0999 V2000
    1.2353    0.8775   -0.0000 C   0  0  0  0  0  0  0  0  0  0  0  0
    1.5014    1.0533    0.9404 H   0  0  0  0  0  0  0  0  0  0  0  0
    1.0228    1.7272   -0.4681 H   0  0  0  0  0  0  0  0  0  0  0  0
    2.0612    0.3868   -0.5151 H   0  0  0  0  0  0  0  0  0  0  0  0
    0.0000    0.0000    0.0000 C   0  0  0  0  0  0  0  0  0  0  0  0
    0.0141   -0.5822   -0.8158 H   0  0  0  0  0  0  0  0  0  0  0  0
    0.0140   -0.5818    0.8165 H   0  0  0  0  0  0  0  0  0  0  0  0
   -1.2353    0.8151    0.0000 N   0  0  0  0  0  4  0  0  0  0  0  0
   -2.0341    0.2133    0.0348 H   0  0  0  0  0  0  0  0  0  0  0  0
   -1.2393    1.4187    0.7989 H   0  0  0  0  0  0  0  0  0  0  0  0
   -1.2731    1.3681   -0.8337 H   0  0  0  0  0  0  0  0  0  0  0  0
   -3.5370    3.9286   -1.3092 C   0  0  0  0  0  0  0  0  0  0  0  0
   -3.6097    2.9917   -1.7385 H   0  0  0  0  0  0  0  0  0  0  0  0
   -4.0079    4.5562   -1.9811 H   0  0  0  0  0  0  0  0  0  0  0  0
   -4.1138    3.9248   -0.3844 H   0  0  0  0  0  0  0  0  0  0  0  0
   -1.8034    4.4008   -1.1055 S   0  0  0  0  0  0  0  0  0  0  0  0
   -1.9650    6.0327   -0.3783 C   0  0  0  0  0  0  0  0  0  0  0  0
   -1.0777    6.4945   -0.3922 H   0  0  0  0  0  0  0  0  0  0  0  0
   -2.6273    6.5691   -0.9035 H   0  0  0  0  0  0  0  0  0  0  0  0
   -2.2804    5.9477    0.5680 H   0  0  0  0  0  0  0  0  0  0  0  0
  1  5  1  0
  5  8  1  0
  1  2  1  0
  1  3  1  0
  1  4  1  0
  5  6  1  0
  5  7  1  0
  8  9  1  0
  8 10  1  0
  8 11  1  0
 12 16  1  0
 16 17  1  0
 12 13  1  0
 12 14  1  0
 12 15  1  0
 17 18  1  0
 17 19  1  0
 17 20  1  0
M  CHG  1   8   1
M  END
>  <PDB_ID>  (1371) 
pdb3ung

>  <RESIDUE_NAME>  (1371) 
LYS   MET

>  <FRAG_NAME>  (1371) 
ETAM   MSM

>  <FRAG_ATOM_NUM>  (1371) 
fragi: 11  fragj: 9

>  <atom.prop.CHAIN_ID>  (1371) 
A A A A A A A A A A A Z Z Z Z Z Z Z Z Z

>  <atom.prop.IS_HEAVY_ATOM>  (1371) 
1 0 0 0 1 0 0 1 0 0 0 1 0 0 0 1 1 0 0 0

>  <DIFUSE_FUNC_ATOM>  (1371) 
n/a

>  <FINAL_SINGLE_POINT_ENERGY>  (1371) 
0

>  <NONCOV_INTER_ENERGY_QM>  (1371) 
0

>  <FF_Energy>  (1371) 
-4.26

>  <QM_Energy>  (1371) 
-9.86

>  <source>  (1371) 
ETAM_MSM

>  <Index>  (1371) 
8586

$$$$
ETAM-pdb4ueg-B-LYS-78:MSM-pdb4ueg-B-MET-156
     RDKit          3D

 20 18  0  0  0  0  0  0  0  0999 V2000
    1.2531    0.8660   -0.0000 C   0  0  0  0  0  0  0  0  0  0  0  0
    1.2849    1.3762    0.8513 H   0  0  0  0  0  0  0  0  0  0  0  0
    1.2122    1.4813   -0.7775 H   0  0  0  0  0  0  0  0  0  0  0  0
    2.1513    0.2536   -0.0791 H   0  0  0  0  0  0  0  0  0  0  0  0
    0.0000    0.0000    0.0000 C   0  0  0  0  0  0  0  0  0  0  0  0
    0.0134   -0.5890   -0.8158 H   0  0  0  0  0  0  0  0  0  0  0  0
    0.0129   -0.5885    0.8163 H   0  0  0  0  0  0  0  0  0  0  0  0
   -1.2531    0.8048   -0.0000 N   0  0  0  0  0  4  0  0  0  0  0  0
   -1.7115    0.7041    0.8829 H   0  0  0  0  0  0  0  0  0  0  0  0
   -1.0290    1.7668   -0.1537 H   0  0  0  0  0  0  0  0  0  0  0  0
   -1.8550    0.4805   -0.7294 H   0  0  0  0  0  0  0  0  0  0  0  0
    0.9422    4.3996   -1.4241 C   0  0  0  0  0  0  0  0  0  0  0  0
    1.5944    3.6033   -1.4374 H   0  0  0  0  0  0  0  0  0  0  0  0
    1.4821    5.1782   -1.0215 H   0  0  0  0  0  0  0  0  0  0  0  0
    0.6910    4.6525   -2.4541 H   0  0  0  0  0  0  0  0  0  0  0  0
   -0.4987    4.0258   -0.3941 S   0  0  0  0  0  0  0  0  0  0  0  0
   -1.2986    5.6289   -0.2978 C   0  0  0  0  0  0  0  0  0  0  0  0
   -0.7521    6.2412    0.2737 H   0  0  0  0  0  0  0  0  0  0  0  0
   -1.3818    6.0171   -1.2164 H   0  0  0  0  0  0  0  0  0  0  0  0
   -2.2093    5.5246    0.1026 H   0  0  0  0  0  0  0  0  0  0  0  0
  1  5  1  0
  5  8  1  0
  1  2  1  0
  1  3  1  0
  1  4  1  0
  5  6  1  0
  5  7  1  0
  8  9  1  0
  8 10  1  0
  8 11  1  0
 12 16  1  0
 16 17  1  0
 12 13  1  0
 12 14  1  0
 12 15  1  0
 17 18  1  0
 17 19  1  0
 17 20  1  0
M  CHG  1   8   1
M  END
>  <PDB_ID>  (1372) 
pdb4ueg

>  <RESIDUE_NAME>  (1372) 
LYS   MET

>  <FRAG_NAME>  (1372) 
ETAM   MSM

>  <FRAG_ATOM_NUM>  (1372) 
fragi: 11  fragj: 9

>  <atom.prop.CHAIN_ID>  (1372) 
A A A A A A A A A A A Z Z Z Z Z Z Z Z Z

>  <atom.prop.IS_HEAVY_ATOM>  (1372) 
1 0 0 0 1 0 0 1 0 0 0 1 0 0 0 1 1 0 0 0

>  <DIFUSE_FUNC_ATOM>  (1372) 
n/a

>  <FINAL_SINGLE_POINT_ENERGY>  (1372) 
0

>  <NONCOV_INTER_ENERGY_QM>  (1372) 
0

>  <FF_Energy>  (1372) 
-6.05

>  <QM_Energy>  (1372) 
-15.46

>  <source>  (1372) 
ETAM_MSM

>  <Index>  (1372) 
8601

$$$$
ETAM-pdb3ury-A-LYS-243:MSM-pdb3ury-A-MET-291
     RDKit          3D

 20 18  0  0  0  0  0  0  0  0999 V2000
    1.1741    1.0468    0.0000 C   0  0  0  0  0  0  0  0  0  0  0  0
    1.0364    1.6501   -0.7772 H   0  0  0  0  0  0  0  0  0  0  0  0
    2.0246    0.5411   -0.0978 H   0  0  0  0  0  0  0  0  0  0  0  0
    1.2145    1.6429    0.9117 H   0  0  0  0  0  0  0  0  0  0  0  0
    0.0000    0.0000    0.0000 C   0  0  0  0  0  0  0  0  0  0  0  0
    0.0574   -0.5019   -0.8163 H   0  0  0  0  0  0  0  0  0  0  0  0
    0.0573   -0.5023    0.8170 H   0  0  0  0  0  0  0  0  0  0  0  0
   -1.1741    0.8807    0.0000 N   0  0  0  0  0  4  0  0  0  0  0  0
   -0.8946    1.8234   -0.1977 H   0  0  0  0  0  0  0  0  0  0  0  0
   -1.8269    0.5802   -0.6993 H   0  0  0  0  0  0  0  0  0  0  0  0
   -1.6211    0.8538    0.8970 H   0  0  0  0  0  0  0  0  0  0  0  0
   -0.7665    5.1923    0.2896 C   0  0  0  0  0  0  0  0  0  0  0  0
   -0.3366    4.8722    1.1700 H   0  0  0  0  0  0  0  0  0  0  0  0
   -1.0389    6.1693    0.4697 H   0  0  0  0  0  0  0  0  0  0  0  0
   -0.0103    5.1776   -0.4953 H   0  0  0  0  0  0  0  0  0  0  0  0
   -2.2045    4.1989   -0.1087 S   0  0  0  0  0  0  0  0  0  0  0  0
   -3.1519    4.2995    1.4012 C   0  0  0  0  0  0  0  0  0  0  0  0
   -3.0732    3.4389    1.9081 H   0  0  0  0  0  0  0  0  0  0  0  0
   -2.8062    5.0493    1.9692 H   0  0  0  0  0  0  0  0  0  0  0  0
   -4.1160    4.4680    1.1853 H   0  0  0  0  0  0  0  0  0  0  0  0
  1  5  1  0
  5  8  1  0
  1  2  1  0
  1  3  1  0
  1  4  1  0
  5  6  1  0
  5  7  1  0
  8  9  1  0
  8 10  1  0
  8 11  1  0
 12 16  1  0
 16 17  1  0
 12 13  1  0
 12 14  1  0
 12 15  1  0
 17 18  1  0
 17 19  1  0
 17 20  1  0
M  CHG  1   8   1
M  END
>  <PDB_ID>  (1373) 
pdb3ury

>  <RESIDUE_NAME>  (1373) 
LYS   MET

>  <FRAG_NAME>  (1373) 
ETAM   MSM

>  <FRAG_ATOM_NUM>  (1373) 
fragi: 11  fragj: 9

>  <atom.prop.CHAIN_ID>  (1373) 
A A A A A A A A A A A Z Z Z Z Z Z Z Z Z

>  <atom.prop.IS_HEAVY_ATOM>  (1373) 
1 0 0 0 1 0 0 1 0 0 0 1 0 0 0 1 1 0 0 0

>  <DIFUSE_FUNC_ATOM>  (1373) 
n/a

>  <FINAL_SINGLE_POINT_ENERGY>  (1373) 
0

>  <NONCOV_INTER_ENERGY_QM>  (1373) 
0

>  <FF_Energy>  (1373) 
-4.91

>  <QM_Energy>  (1373) 
-13.19

>  <source>  (1373) 
ETAM_MSM

>  <Index>  (1373) 
8605

$$$$
ETAM-pdb3ury-B-LYS-243:MSM-pdb3ury-B-MET-291
     RDKit          3D

 20 18  0  0  0  0  0  0  0  0999 V2000
    1.2705    0.8614    0.0000 C   0  0  0  0  0  0  0  0  0  0  0  0
    1.1799    1.5505   -0.7184 H   0  0  0  0  0  0  0  0  0  0  0  0
    2.0485    0.2674   -0.2028 H   0  0  0  0  0  0  0  0  0  0  0  0
    1.4460    1.3642    0.9511 H   0  0  0  0  0  0  0  0  0  0  0  0
    0.0000    0.0000    0.0000 C   0  0  0  0  0  0  0  0  0  0  0  0
   -0.0018   -0.5792   -0.8163 H   0  0  0  0  0  0  0  0  0  0  0  0
   -0.0025   -0.5802    0.8161 H   0  0  0  0  0  0  0  0  0  0  0  0
   -1.2705    0.8378   -0.0000 N   0  0  0  0  0  4  0  0  0  0  0  0
   -1.0162    1.7962    0.0735 H   0  0  0  0  0  0  0  0  0  0  0  0
   -1.7572    0.6713   -0.8511 H   0  0  0  0  0  0  0  0  0  0  0  0
   -1.8271    0.5660    0.7778 H   0  0  0  0  0  0  0  0  0  0  0  0
   -0.2572    5.3466    0.1471 C   0  0  0  0  0  0  0  0  0  0  0  0
    0.1769    5.2359    1.0892 H   0  0  0  0  0  0  0  0  0  0  0  0
   -0.4829    6.3638    0.1100 H   0  0  0  0  0  0  0  0  0  0  0  0
    0.5090    5.1439   -0.6012 H   0  0  0  0  0  0  0  0  0  0  0  0
   -1.7393    4.3643    0.0124 S   0  0  0  0  0  0  0  0  0  0  0  0
   -2.5478    4.7904    1.5705 C   0  0  0  0  0  0  0  0  0  0  0  0
   -2.6274    3.9700    2.1336 H   0  0  0  0  0  0  0  0  0  0  0  0
   -2.0007    5.4760    2.0470 H   0  0  0  0  0  0  0  0  0  0  0  0
   -3.4566    5.1575    1.3794 H   0  0  0  0  0  0  0  0  0  0  0  0
  1  5  1  0
  5  8  1  0
  1  2  1  0
  1  3  1  0
  1  4  1  0
  5  6  1  0
  5  7  1  0
  8  9  1  0
  8 10  1  0
  8 11  1  0
 12 16  1  0
 16 17  1  0
 12 13  1  0
 12 14  1  0
 12 15  1  0
 17 18  1  0
 17 19  1  0
 17 20  1  0
M  CHG  1   8   1
M  END
>  <PDB_ID>  (1374) 
pdb3ury

>  <RESIDUE_NAME>  (1374) 
LYS   MET

>  <FRAG_NAME>  (1374) 
ETAM   MSM

>  <FRAG_ATOM_NUM>  (1374) 
fragi: 11  fragj: 9

>  <atom.prop.CHAIN_ID>  (1374) 
A A A A A A A A A A A Z Z Z Z Z Z Z Z Z

>  <atom.prop.IS_HEAVY_ATOM>  (1374) 
1 0 0 0 1 0 0 1 0 0 0 1 0 0 0 1 1 0 0 0

>  <DIFUSE_FUNC_ATOM>  (1374) 
n/a

>  <FINAL_SINGLE_POINT_ENERGY>  (1374) 
0

>  <NONCOV_INTER_ENERGY_QM>  (1374) 
0

>  <FF_Energy>  (1374) 
-5.21

>  <QM_Energy>  (1374) 
-14.29

>  <source>  (1374) 
ETAM_MSM

>  <Index>  (1374) 
8606

$$$$
ETAM-pdb4urg-A-LYS-238:MSM-pdb4urg-A-MET-234
     RDKit          3D

 20 18  0  0  0  0  0  0  0  0999 V2000
    1.2464    0.8471    0.0000 C   0  0  0  0  0  0  0  0  0  0  0  0
    1.2037    1.4814    0.7564 H   0  0  0  0  0  0  0  0  0  0  0  0
    1.3137    1.3193   -0.8648 H   0  0  0  0  0  0  0  0  0  0  0  0
    2.1173    0.2036    0.1242 H   0  0  0  0  0  0  0  0  0  0  0  0
    0.0000    0.0000    0.0000 C   0  0  0  0  0  0  0  0  0  0  0  0
    0.0026   -0.5928   -0.8165 H   0  0  0  0  0  0  0  0  0  0  0  0
    0.0026   -0.5925    0.8160 H   0  0  0  0  0  0  0  0  0  0  0  0
   -1.2464    0.8131   -0.0000 N   0  0  0  0  0  4  0  0  0  0  0  0
   -1.0100    1.7824   -0.0596 H   0  0  0  0  0  0  0  0  0  0  0  0
   -1.8092    0.5572   -0.7854 H   0  0  0  0  0  0  0  0  0  0  0  0
   -1.7533    0.6429    0.8451 H   0  0  0  0  0  0  0  0  0  0  0  0
   -0.5847    1.0821   -4.6749 C   0  0  0  0  0  0  0  0  0  0  0  0
    0.3426    1.4982   -4.7636 H   0  0  0  0  0  0  0  0  0  0  0  0
   -1.2145    1.6704   -5.2229 H   0  0  0  0  0  0  0  0  0  0  0  0
   -0.5612    0.0892   -5.1237 H   0  0  0  0  0  0  0  0  0  0  0  0
   -1.1021    1.0353   -2.9371 S   0  0  0  0  0  0  0  0  0  0  0  0
   -2.8558    0.5478   -3.0910 C   0  0  0  0  0  0  0  0  0  0  0  0
   -3.4219    1.3596   -2.9896 H   0  0  0  0  0  0  0  0  0  0  0  0
   -2.9951    0.1400   -3.9885 H   0  0  0  0  0  0  0  0  0  0  0  0
   -3.0666   -0.1112   -2.3764 H   0  0  0  0  0  0  0  0  0  0  0  0
  1  5  1  0
  5  8  1  0
  1  2  1  0
  1  3  1  0
  1  4  1  0
  5  6  1  0
  5  7  1  0
  8  9  1  0
  8 10  1  0
  8 11  1  0
 12 16  1  0
 16 17  1  0
 12 13  1  0
 12 14  1  0
 12 15  1  0
 17 18  1  0
 17 19  1  0
 17 20  1  0
M  CHG  1   8   1
M  END
>  <PDB_ID>  (1375) 
pdb4urg

>  <RESIDUE_NAME>  (1375) 
LYS   MET

>  <FRAG_NAME>  (1375) 
ETAM   MSM

>  <FRAG_ATOM_NUM>  (1375) 
fragi: 11  fragj: 9

>  <atom.prop.CHAIN_ID>  (1375) 
A A A A A A A A A A A Z Z Z Z Z Z Z Z Z

>  <atom.prop.IS_HEAVY_ATOM>  (1375) 
1 0 0 0 1 0 0 1 0 0 0 1 0 0 0 1 1 0 0 0

>  <DIFUSE_FUNC_ATOM>  (1375) 
n/a

>  <FINAL_SINGLE_POINT_ENERGY>  (1375) 
0

>  <NONCOV_INTER_ENERGY_QM>  (1375) 
0

>  <FF_Energy>  (1375) 
-1.51

>  <QM_Energy>  (1375) 
-10.54

>  <source>  (1375) 
ETAM_MSM

>  <Index>  (1375) 
8624

$$$$
ETAM-pdb3uwl-A-LYS-41:MSM-pdb3uwl-A-MET-1
     RDKit          3D

 20 18  0  0  0  0  0  0  0  0999 V2000
    1.2105    0.9382    0.0000 C   0  0  0  0  0  0  0  0  0  0  0  0
    1.4276    1.1641    0.9376 H   0  0  0  0  0  0  0  0  0  0  0  0
    0.9761    1.7465   -0.5196 H   0  0  0  0  0  0  0  0  0  0  0  0
    2.0660    0.4449   -0.4614 H   0  0  0  0  0  0  0  0  0  0  0  0
    0.0000    0.0000    0.0000 C   0  0  0  0  0  0  0  0  0  0  0  0
    0.0196   -0.5450   -0.8163 H   0  0  0  0  0  0  0  0  0  0  0  0
    0.0194   -0.5454    0.8170 H   0  0  0  0  0  0  0  0  0  0  0  0
   -1.2105    0.8632   -0.0000 N   0  0  0  0  0  4  0  0  0  0  0  0
   -1.7188    0.7224   -0.8494 H   0  0  0  0  0  0  0  0  0  0  0  0
   -1.7892    0.6244    0.7791 H   0  0  0  0  0  0  0  0  0  0  0  0
   -0.9346    1.8220    0.0699 H   0  0  0  0  0  0  0  0  0  0  0  0
   -1.4903    5.9689    0.0478 C   0  0  0  0  0  0  0  0  0  0  0  0
   -1.3687    5.7246    1.0279 H   0  0  0  0  0  0  0  0  0  0  0  0
   -2.4897    6.0748   -0.1063 H   0  0  0  0  0  0  0  0  0  0  0  0
   -0.9959    6.9208   -0.1457 H   0  0  0  0  0  0  0  0  0  0  0  0
   -0.8197    4.6672   -1.0178 S   0  0  0  0  0  0  0  0  0  0  0  0
   -1.8241    4.8608   -2.5261 C   0  0  0  0  0  0  0  0  0  0  0  0
   -2.6770    5.3157   -2.2867 H   0  0  0  0  0  0  0  0  0  0  0  0
   -1.3140    5.4100   -3.1821 H   0  0  0  0  0  0  0  0  0  0  0  0
   -2.0107    3.9587   -2.9048 H   0  0  0  0  0  0  0  0  0  0  0  0
  1  5  1  0
  5  8  1  0
  1  2  1  0
  1  3  1  0
  1  4  1  0
  5  6  1  0
  5  7  1  0
  8  9  1  0
  8 10  1  0
  8 11  1  0
 12 16  1  0
 16 17  1  0
 12 13  1  0
 12 14  1  0
 12 15  1  0
 17 18  1  0
 17 19  1  0
 17 20  1  0
M  CHG  1   8   1
M  END
>  <PDB_ID>  (1376) 
pdb3uwl

>  <RESIDUE_NAME>  (1376) 
LYS   MET

>  <FRAG_NAME>  (1376) 
ETAM   MSM

>  <FRAG_ATOM_NUM>  (1376) 
fragi: 11  fragj: 9

>  <atom.prop.CHAIN_ID>  (1376) 
A A A A A A A A A A A Z Z Z Z Z Z Z Z Z

>  <atom.prop.IS_HEAVY_ATOM>  (1376) 
1 0 0 0 1 0 0 1 0 0 0 1 0 0 0 1 1 0 0 0

>  <DIFUSE_FUNC_ATOM>  (1376) 
n/a

>  <FINAL_SINGLE_POINT_ENERGY>  (1376) 
0

>  <NONCOV_INTER_ENERGY_QM>  (1376) 
0

>  <FF_Energy>  (1376) 
-4.37

>  <QM_Energy>  (1376) 
-11.81

>  <source>  (1376) 
ETAM_MSM

>  <Index>  (1376) 
8630

$$$$
ETAM-pdb3ut2-A-LYS-457:MSM-pdb3ut2-A-MET-301
     RDKit          3D

 20 18  0  0  0  0  0  0  0  0999 V2000
    1.2383    0.8674   -0.0000 C   0  0  0  0  0  0  0  0  0  0  0  0
    1.1510    1.5361    0.7392 H   0  0  0  0  0  0  0  0  0  0  0  0
    1.2841    1.3471   -0.8776 H   0  0  0  0  0  0  0  0  0  0  0  0
    2.1442    0.2788    0.1439 H   0  0  0  0  0  0  0  0  0  0  0  0
    0.0000    0.0000    0.0000 C   0  0  0  0  0  0  0  0  0  0  0  0
   -0.0008   -0.5765   -0.8158 H   0  0  0  0  0  0  0  0  0  0  0  0
   -0.0005   -0.5763    0.8169 H   0  0  0  0  0  0  0  0  0  0  0  0
   -1.2383    0.8414    0.0000 N   0  0  0  0  0  4  0  0  0  0  0  0
   -1.9837    0.3259   -0.4170 H   0  0  0  0  0  0  0  0  0  0  0  0
   -1.4740    1.0766    0.9414 H   0  0  0  0  0  0  0  0  0  0  0  0
   -1.0681    1.6738   -0.5234 H   0  0  0  0  0  0  0  0  0  0  0  0
   -0.5966   -0.4570   -4.8137 C   0  0  0  0  0  0  0  0  0  0  0  0
   -0.7406   -1.3944   -4.4256 H   0  0  0  0  0  0  0  0  0  0  0  0
   -0.0646   -0.5954   -5.6781 H   0  0  0  0  0  0  0  0  0  0  0  0
   -1.5707   -0.0434   -5.0750 H   0  0  0  0  0  0  0  0  0  0  0  0
    0.3198    0.5843   -3.6550 S   0  0  0  0  0  0  0  0  0  0  0  0
    1.8366   -0.3596   -3.4702 C   0  0  0  0  0  0  0  0  0  0  0  0
    1.9925   -0.5529   -2.5019 H   0  0  0  0  0  0  0  0  0  0  0  0
    1.7569   -1.2206   -3.9734 H   0  0  0  0  0  0  0  0  0  0  0  0
    2.6046    0.1691   -3.8329 H   0  0  0  0  0  0  0  0  0  0  0  0
  1  5  1  0
  5  8  1  0
  1  2  1  0
  1  3  1  0
  1  4  1  0
  5  6  1  0
  5  7  1  0
  8  9  1  0
  8 10  1  0
  8 11  1  0
 12 16  1  0
 16 17  1  0
 12 13  1  0
 12 14  1  0
 12 15  1  0
 17 18  1  0
 17 19  1  0
 17 20  1  0
M  CHG  1   8   1
M  END
>  <PDB_ID>  (1377) 
pdb3ut2

>  <RESIDUE_NAME>  (1377) 
LYS   MET

>  <FRAG_NAME>  (1377) 
ETAM   MSM

>  <FRAG_ATOM_NUM>  (1377) 
fragi: 11  fragj: 9

>  <atom.prop.CHAIN_ID>  (1377) 
A A A A A A A A A A A Z Z Z Z Z Z Z Z Z

>  <atom.prop.IS_HEAVY_ATOM>  (1377) 
1 0 0 0 1 0 0 1 0 0 0 1 0 0 0 1 1 0 0 0

>  <DIFUSE_FUNC_ATOM>  (1377) 
n/a

>  <FINAL_SINGLE_POINT_ENERGY>  (1377) 
0

>  <NONCOV_INTER_ENERGY_QM>  (1377) 
0

>  <FF_Energy>  (1377) 
-4.56

>  <QM_Energy>  (1377) 
-10.6

>  <source>  (1377) 
ETAM_MSM

>  <Index>  (1377) 
8640

$$$$
ETAM-pdb3v05-D-LYS-44:MSM-pdb3v05-D-MET-173
     RDKit          3D

 20 18  0  0  0  0  0  0  0  0999 V2000
    1.2554    0.8586   -0.0000 C   0  0  0  0  0  0  0  0  0  0  0  0
    1.2467    1.4285    0.8158 H   0  0  0  0  0  0  0  0  0  0  0  0
    1.2482    1.4261   -0.8177 H   0  0  0  0  0  0  0  0  0  0  0  0
    2.1559    0.2445    0.0029 H   0  0  0  0  0  0  0  0  0  0  0  0
    0.0000    0.0000    0.0000 C   0  0  0  0  0  0  0  0  0  0  0  0
    0.0082   -0.5895   -0.8166 H   0  0  0  0  0  0  0  0  0  0  0  0
    0.0080   -0.5895    0.8160 H   0  0  0  0  0  0  0  0  0  0  0  0
   -1.2554    0.8097   -0.0000 N   0  0  0  0  0  4  0  0  0  0  0  0
   -1.8858    0.4395   -0.6801 H   0  0  0  0  0  0  0  0  0  0  0  0
   -1.6740    0.7677    0.9060 H   0  0  0  0  0  0  0  0  0  0  0  0
   -1.0355    1.7569   -0.2263 H   0  0  0  0  0  0  0  0  0  0  0  0
   -0.5758    5.7963    1.4681 C   0  0  0  0  0  0  0  0  0  0  0  0
   -0.1521    5.7014    0.5406 H   0  0  0  0  0  0  0  0  0  0  0  0
   -0.4422    6.7766    1.7344 H   0  0  0  0  0  0  0  0  0  0  0  0
   -1.6447    5.6005    1.3835 H   0  0  0  0  0  0  0  0  0  0  0  0
    0.2276    4.7000    2.6506 S   0  0  0  0  0  0  0  0  0  0  0  0
   -0.0092    3.1185    1.8767 C   0  0  0  0  0  0  0  0  0  0  0  0
    0.1104    2.3852    2.5509 H   0  0  0  0  0  0  0  0  0  0  0  0
   -0.9347    3.0598    1.4928 H   0  0  0  0  0  0  0  0  0  0  0  0
    0.6586    2.9938    1.1381 H   0  0  0  0  0  0  0  0  0  0  0  0
  1  5  1  0
  5  8  1  0
  1  2  1  0
  1  3  1  0
  1  4  1  0
  5  6  1  0
  5  7  1  0
  8  9  1  0
  8 10  1  0
  8 11  1  0
 12 16  1  0
 16 17  1  0
 12 13  1  0
 12 14  1  0
 12 15  1  0
 17 18  1  0
 17 19  1  0
 17 20  1  0
M  CHG  1   8   1
M  END
>  <PDB_ID>  (1378) 
pdb3v05

>  <RESIDUE_NAME>  (1378) 
LYS   MET

>  <FRAG_NAME>  (1378) 
ETAM   MSM

>  <FRAG_ATOM_NUM>  (1378) 
fragi: 11  fragj: 9

>  <atom.prop.CHAIN_ID>  (1378) 
A A A A A A A A A A A Z Z Z Z Z Z Z Z Z

>  <atom.prop.IS_HEAVY_ATOM>  (1378) 
1 0 0 0 1 0 0 1 0 0 0 1 0 0 0 1 1 0 0 0

>  <DIFUSE_FUNC_ATOM>  (1378) 
n/a

>  <FINAL_SINGLE_POINT_ENERGY>  (1378) 
0

>  <NONCOV_INTER_ENERGY_QM>  (1378) 
0

>  <FF_Energy>  (1378) 
11.33

>  <QM_Energy>  (1378) 
3.59

>  <source>  (1378) 
ETAM_MSM

>  <Index>  (1378) 
8653

$$$$
ETAM-pdb4v0k-B-LYS-99:MSM-pdb4v0k-B-MET-136
     RDKit          3D

 20 18  0  0  0  0  0  0  0  0999 V2000
    1.2321    0.8764   -0.0000 C   0  0  0  0  0  0  0  0  0  0  0  0
    1.2154    1.4542    0.8164 H   0  0  0  0  0  0  0  0  0  0  0  0
    1.2143    1.4537   -0.8166 H   0  0  0  0  0  0  0  0  0  0  0  0
    2.1563    0.2984    0.0001 H   0  0  0  0  0  0  0  0  0  0  0  0
    0.0000    0.0000    0.0000 C   0  0  0  0  0  0  0  0  0  0  0  0
    0.0087   -0.5781   -0.8154 H   0  0  0  0  0  0  0  0  0  0  0  0
    0.0076   -0.5777    0.8166 H   0  0  0  0  0  0  0  0  0  0  0  0
   -1.2321    0.8289   -0.0000 N   0  0  0  0  0  4  0  0  0  0  0  0
   -1.0148    1.7484   -0.3268 H   0  0  0  0  0  0  0  0  0  0  0  0
   -1.9128    0.4125   -0.6030 H   0  0  0  0  0  0  0  0  0  0  0  0
   -1.5974    0.8822    0.9288 H   0  0  0  0  0  0  0  0  0  0  0  0
    0.5399   -2.6354   -1.5446 C   0  0  0  0  0  0  0  0  0  0  0  0
   -0.3077   -2.0843   -1.5630 H   0  0  0  0  0  0  0  0  0  0  0  0
    0.7404   -2.8557   -0.5771 H   0  0  0  0  0  0  0  0  0  0  0  0
    0.3788   -3.5601   -2.0987 H   0  0  0  0  0  0  0  0  0  0  0  0
    1.8981   -1.7425   -2.2902 S   0  0  0  0  0  0  0  0  0  0  0  0
    1.5445   -2.0107   -4.0374 C   0  0  0  0  0  0  0  0  0  0  0  0
    2.1049   -1.3925   -4.5864 H   0  0  0  0  0  0  0  0  0  0  0  0
    1.7572   -2.9572   -4.2753 H   0  0  0  0  0  0  0  0  0  0  0  0
    0.5770   -1.8298   -4.2105 H   0  0  0  0  0  0  0  0  0  0  0  0
  1  5  1  0
  5  8  1  0
  1  2  1  0
  1  3  1  0
  1  4  1  0
  5  6  1  0
  5  7  1  0
  8  9  1  0
  8 10  1  0
  8 11  1  0
 12 16  1  0
 16 17  1  0
 12 13  1  0
 12 14  1  0
 12 15  1  0
 17 18  1  0
 17 19  1  0
 17 20  1  0
M  CHG  1   8   1
M  END
>  <PDB_ID>  (1379) 
pdb4v0k

>  <RESIDUE_NAME>  (1379) 
LYS   MET

>  <FRAG_NAME>  (1379) 
ETAM   MSM

>  <FRAG_ATOM_NUM>  (1379) 
fragi: 11  fragj: 9

>  <atom.prop.CHAIN_ID>  (1379) 
A A A A A A A A A A A Z Z Z Z Z Z Z Z Z

>  <atom.prop.IS_HEAVY_ATOM>  (1379) 
1 0 0 0 1 0 0 1 0 0 0 1 0 0 0 1 1 0 0 0

>  <DIFUSE_FUNC_ATOM>  (1379) 
n/a

>  <FINAL_SINGLE_POINT_ENERGY>  (1379) 
0

>  <NONCOV_INTER_ENERGY_QM>  (1379) 
0

>  <FF_Energy>  (1379) 
11.43

>  <QM_Energy>  (1379) 
-2.1

>  <source>  (1379) 
ETAM_MSM

>  <Index>  (1379) 
8661

$$$$
ETAM-pdb3v2o-A-LYS-232:MSM-pdb3v2o-A-MET-266
     RDKit          3D

 20 18  0  0  0  0  0  0  0  0999 V2000
    1.2743    0.8724   -0.0000 C   0  0  0  0  0  0  0  0  0  0  0  0
    1.0105    1.8099   -0.2372 H   0  0  0  0  0  0  0  0  0  0  0  0
    1.8945    0.5181   -0.7030 H   0  0  0  0  0  0  0  0  0  0  0  0
    1.8067    0.8944    0.9509 H   0  0  0  0  0  0  0  0  0  0  0  0
    0.0000    0.0000    0.0000 C   0  0  0  0  0  0  0  0  0  0  0  0
    0.0183   -0.5889   -0.8163 H   0  0  0  0  0  0  0  0  0  0  0  0
    0.0182   -0.5899    0.8167 H   0  0  0  0  0  0  0  0  0  0  0  0
   -1.2743    0.7972    0.0000 N   0  0  0  0  0  4  0  0  0  0  0  0
   -1.9219    0.3735    0.6291 H   0  0  0  0  0  0  0  0  0  0  0  0
   -1.0738    1.7291    0.2934 H   0  0  0  0  0  0  0  0  0  0  0  0
   -1.6520    0.8049   -0.9226 H   0  0  0  0  0  0  0  0  0  0  0  0
   -2.5617    4.0251   -0.0342 C   0  0  0  0  0  0  0  0  0  0  0  0
   -3.2194    3.5541    0.5868 H   0  0  0  0  0  0  0  0  0  0  0  0
   -2.4203    3.4019   -0.8288 H   0  0  0  0  0  0  0  0  0  0  0  0
   -3.0088    4.9549   -0.3861 H   0  0  0  0  0  0  0  0  0  0  0  0
   -1.0071    4.3412    0.8090 S   0  0  0  0  0  0  0  0  0  0  0  0
   -0.1443    5.2496   -0.4599 C   0  0  0  0  0  0  0  0  0  0  0  0
   -0.5965    6.1309   -0.6139 H   0  0  0  0  0  0  0  0  0  0  0  0
    0.8031    5.4120   -0.1769 H   0  0  0  0  0  0  0  0  0  0  0  0
   -0.1465    4.7256   -1.3147 H   0  0  0  0  0  0  0  0  0  0  0  0
  1  5  1  0
  5  8  1  0
  1  2  1  0
  1  3  1  0
  1  4  1  0
  5  6  1  0
  5  7  1  0
  8  9  1  0
  8 10  1  0
  8 11  1  0
 12 16  1  0
 16 17  1  0
 12 13  1  0
 12 14  1  0
 12 15  1  0
 17 18  1  0
 17 19  1  0
 17 20  1  0
M  CHG  1   8   1
M  END
>  <PDB_ID>  (1380) 
pdb3v2o

>  <RESIDUE_NAME>  (1380) 
LYS   MET

>  <FRAG_NAME>  (1380) 
ETAM   MSM

>  <FRAG_ATOM_NUM>  (1380) 
fragi: 11  fragj: 9

>  <atom.prop.CHAIN_ID>  (1380) 
A A A A A A A A A A A Z Z Z Z Z Z Z Z Z

>  <atom.prop.IS_HEAVY_ATOM>  (1380) 
1 0 0 0 1 0 0 1 0 0 0 1 0 0 0 1 1 0 0 0

>  <DIFUSE_FUNC_ATOM>  (1380) 
n/a

>  <FINAL_SINGLE_POINT_ENERGY>  (1380) 
0

>  <NONCOV_INTER_ENERGY_QM>  (1380) 
0

>  <FF_Energy>  (1380) 
-3.84

>  <QM_Energy>  (1380) 
-11.49

>  <source>  (1380) 
ETAM_MSM

>  <Index>  (1380) 
8663

$$$$
ETAM-pdb3v3t-A-LYS-119:MSM-pdb3v3t-A-MET-81
     RDKit          3D

 20 18  0  0  0  0  0  0  0  0999 V2000
    1.2658    0.8634   -0.0000 C   0  0  0  0  0  0  0  0  0  0  0  0
    2.0559    0.2605    0.0501 H   0  0  0  0  0  0  0  0  0  0  0  0
    1.2370    1.4617    0.7944 H   0  0  0  0  0  0  0  0  0  0  0  0
    1.3435    1.4737   -0.8998 H   0  0  0  0  0  0  0  0  0  0  0  0
    0.0000    0.0000    0.0000 C   0  0  0  0  0  0  0  0  0  0  0  0
    0.0146   -0.5921   -0.8154 H   0  0  0  0  0  0  0  0  0  0  0  0
    0.0143   -0.5917    0.8165 H   0  0  0  0  0  0  0  0  0  0  0  0
   -1.2658    0.7982   -0.0000 N   0  0  0  0  0  4  0  0  0  0  0  0
   -1.3698    1.2469   -0.8856 H   0  0  0  0  0  0  0  0  0  0  0  0
   -2.0381    0.1875    0.1625 H   0  0  0  0  0  0  0  0  0  0  0  0
   -1.2198    1.4848    0.7229 H   0  0  0  0  0  0  0  0  0  0  0  0
    0.8836   -4.2466    2.3084 C   0  0  0  0  0  0  0  0  0  0  0  0
    1.6356   -4.5557    2.9183 H   0  0  0  0  0  0  0  0  0  0  0  0
    1.0795   -4.6199    1.3842 H   0  0  0  0  0  0  0  0  0  0  0  0
   -0.0538   -4.6717    2.6671 H   0  0  0  0  0  0  0  0  0  0  0  0
    0.7807   -2.4577    2.2703 S   0  0  0  0  0  0  0  0  0  0  0  0
    2.4879   -1.9879    1.9619 C   0  0  0  0  0  0  0  0  0  0  0  0
    3.0415   -2.1984    2.7677 H   0  0  0  0  0  0  0  0  0  0  0  0
    2.8365   -2.4971    1.1748 H   0  0  0  0  0  0  0  0  0  0  0  0
    2.5344   -1.0073    1.7720 H   0  0  0  0  0  0  0  0  0  0  0  0
  1  5  1  0
  5  8  1  0
  1  2  1  0
  1  3  1  0
  1  4  1  0
  5  6  1  0
  5  7  1  0
  8  9  1  0
  8 10  1  0
  8 11  1  0
 12 16  1  0
 16 17  1  0
 12 13  1  0
 12 14  1  0
 12 15  1  0
 17 18  1  0
 17 19  1  0
 17 20  1  0
M  CHG  1   8   1
M  END
>  <PDB_ID>  (1381) 
pdb3v3t

>  <RESIDUE_NAME>  (1381) 
LYS   MET

>  <FRAG_NAME>  (1381) 
ETAM   MSM

>  <FRAG_ATOM_NUM>  (1381) 
fragi: 11  fragj: 9

>  <atom.prop.CHAIN_ID>  (1381) 
A A A A A A A A A A A Z Z Z Z Z Z Z Z Z

>  <atom.prop.IS_HEAVY_ATOM>  (1381) 
1 0 0 0 1 0 0 1 0 0 0 1 0 0 0 1 1 0 0 0

>  <DIFUSE_FUNC_ATOM>  (1381) 
n/a

>  <FINAL_SINGLE_POINT_ENERGY>  (1381) 
0

>  <NONCOV_INTER_ENERGY_QM>  (1381) 
0

>  <FF_Energy>  (1381) 
-0.79

>  <QM_Energy>  (1381) 
-6.8

>  <source>  (1381) 
ETAM_MSM

>  <Index>  (1381) 
8670

$$$$
ETAM-pdb3v3t-A-LYS-4:MSM-pdb3v3t-A-MET-1
     RDKit          3D

 20 18  0  0  0  0  0  0  0  0999 V2000
    1.2648    0.8687   -0.0000 C   0  0  0  0  0  0  0  0  0  0  0  0
    1.2932    1.3786    0.8544 H   0  0  0  0  0  0  0  0  0  0  0  0
    1.2141    1.4926   -0.7734 H   0  0  0  0  0  0  0  0  0  0  0  0
    2.1712    0.2692   -0.0851 H   0  0  0  0  0  0  0  0  0  0  0  0
    0.0000    0.0000    0.0000 C   0  0  0  0  0  0  0  0  0  0  0  0
    0.0119   -0.5866   -0.8163 H   0  0  0  0  0  0  0  0  0  0  0  0
    0.0118   -0.5865    0.8170 H   0  0  0  0  0  0  0  0  0  0  0  0
   -1.2648    0.8105    0.0000 N   0  0  0  0  0  4  0  0  0  0  0  0
   -1.7427    0.6664   -0.8639 H   0  0  0  0  0  0  0  0  0  0  0  0
   -1.8389    0.5158    0.7599 H   0  0  0  0  0  0  0  0  0  0  0  0
   -1.0320    1.7749    0.1035 H   0  0  0  0  0  0  0  0  0  0  0  0
   -0.4861    3.8543    1.4146 C   0  0  0  0  0  0  0  0  0  0  0  0
    0.3025    3.2896    1.7660 H   0  0  0  0  0  0  0  0  0  0  0  0
   -0.3003    4.8072    1.7636 H   0  0  0  0  0  0  0  0  0  0  0  0
   -0.4314    3.8729    0.3261 H   0  0  0  0  0  0  0  0  0  0  0  0
   -2.0509    3.2347    2.0551 S   0  0  0  0  0  0  0  0  0  0  0  0
   -3.1553    4.5936    1.6665 C   0  0  0  0  0  0  0  0  0  0  0  0
   -3.1688    5.2423    2.4288 H   0  0  0  0  0  0  0  0  0  0  0  0
   -2.8363    5.0578    0.8396 H   0  0  0  0  0  0  0  0  0  0  0  0
   -4.0789    4.2407    1.5136 H   0  0  0  0  0  0  0  0  0  0  0  0
  1  5  1  0
  5  8  1  0
  1  2  1  0
  1  3  1  0
  1  4  1  0
  5  6  1  0
  5  7  1  0
  8  9  1  0
  8 10  1  0
  8 11  1  0
 12 16  1  0
 16 17  1  0
 12 13  1  0
 12 14  1  0
 12 15  1  0
 17 18  1  0
 17 19  1  0
 17 20  1  0
M  CHG  1   8   1
M  END
>  <PDB_ID>  (1382) 
pdb3v3t

>  <RESIDUE_NAME>  (1382) 
LYS   MET

>  <FRAG_NAME>  (1382) 
ETAM   MSM

>  <FRAG_ATOM_NUM>  (1382) 
fragi: 11  fragj: 9

>  <atom.prop.CHAIN_ID>  (1382) 
A A A A A A A A A A A Z Z Z Z Z Z Z Z Z

>  <atom.prop.IS_HEAVY_ATOM>  (1382) 
1 0 0 0 1 0 0 1 0 0 0 1 0 0 0 1 1 0 0 0

>  <DIFUSE_FUNC_ATOM>  (1382) 
n/a

>  <FINAL_SINGLE_POINT_ENERGY>  (1382) 
0

>  <NONCOV_INTER_ENERGY_QM>  (1382) 
0

>  <FF_Energy>  (1382) 
-4.56

>  <QM_Energy>  (1382) 
-11.66

>  <source>  (1382) 
ETAM_MSM

>  <Index>  (1382) 
8671

$$$$
ETAM-pdb3v3e-B-LYS-246:MSM-pdb3v3e-B-MET-262
     RDKit          3D

 20 18  0  0  0  0  0  0  0  0999 V2000
    1.2785    0.8589   -0.0000 C   0  0  0  0  0  0  0  0  0  0  0  0
    1.1331    1.6316   -0.6201 H   0  0  0  0  0  0  0  0  0  0  0  0
    2.0306    0.2955   -0.3449 H   0  0  0  0  0  0  0  0  0  0  0  0
    1.5503    1.2449    0.9825 H   0  0  0  0  0  0  0  0  0  0  0  0
    0.0000    0.0000    0.0000 C   0  0  0  0  0  0  0  0  0  0  0  0
    0.0114   -0.5928   -0.8162 H   0  0  0  0  0  0  0  0  0  0  0  0
    0.0111   -0.5929    0.8159 H   0  0  0  0  0  0  0  0  0  0  0  0
   -1.2785    0.8003   -0.0000 N   0  0  0  0  0  4  0  0  0  0  0  0
   -1.1384    1.6291    0.5340 H   0  0  0  0  0  0  0  0  0  0  0  0
   -1.5115    1.0340   -0.9406 H   0  0  0  0  0  0  0  0  0  0  0  0
   -2.0031    0.2494    0.4062 H   0  0  0  0  0  0  0  0  0  0  0  0
   -2.4527    0.2377   -4.9268 C   0  0  0  0  0  0  0  0  0  0  0  0
   -1.8550    1.0033   -4.6212 H   0  0  0  0  0  0  0  0  0  0  0  0
   -3.4055    0.4950   -4.6759 H   0  0  0  0  0  0  0  0  0  0  0  0
   -2.3851    0.1500   -6.0112 H   0  0  0  0  0  0  0  0  0  0  0  0
   -1.9758   -1.3031   -4.1258 S   0  0  0  0  0  0  0  0  0  0  0  0
   -1.8141   -0.6965   -2.5083 C   0  0  0  0  0  0  0  0  0  0  0  0
   -1.2515   -1.3172   -1.9419 H   0  0  0  0  0  0  0  0  0  0  0  0
   -1.3720    0.2122   -2.5033 H   0  0  0  0  0  0  0  0  0  0  0  0
   -2.7169   -0.6041   -2.0624 H   0  0  0  0  0  0  0  0  0  0  0  0
  1  5  1  0
  5  8  1  0
  1  2  1  0
  1  3  1  0
  1  4  1  0
  5  6  1  0
  5  7  1  0
  8  9  1  0
  8 10  1  0
  8 11  1  0
 12 16  1  0
 16 17  1  0
 12 13  1  0
 12 14  1  0
 12 15  1  0
 17 18  1  0
 17 19  1  0
 17 20  1  0
M  CHG  1   8   1
M  END
>  <PDB_ID>  (1383) 
pdb3v3e

>  <RESIDUE_NAME>  (1383) 
LYS   MET

>  <FRAG_NAME>  (1383) 
ETAM   MSM

>  <FRAG_ATOM_NUM>  (1383) 
fragi: 11  fragj: 9

>  <atom.prop.CHAIN_ID>  (1383) 
A A A A A A A A A A A Z Z Z Z Z Z Z Z Z

>  <atom.prop.IS_HEAVY_ATOM>  (1383) 
1 0 0 0 1 0 0 1 0 0 0 1 0 0 0 1 1 0 0 0

>  <DIFUSE_FUNC_ATOM>  (1383) 
n/a

>  <FINAL_SINGLE_POINT_ENERGY>  (1383) 
0

>  <NONCOV_INTER_ENERGY_QM>  (1383) 
0

>  <FF_Energy>  (1383) 
8.92

>  <QM_Energy>  (1383) 
2.36

>  <source>  (1383) 
ETAM_MSM

>  <Index>  (1383) 
8674

$$$$
ETAM-pdb4w4o-B-LYS-248:MSM-pdb4w4o-B-MET-428
     RDKit          3D

 20 18  0  0  0  0  0  0  0  0999 V2000
    1.2273    0.8942    0.0000 C   0  0  0  0  0  0  0  0  0  0  0  0
    1.0727    1.6508   -0.6202 H   0  0  0  0  0  0  0  0  0  0  0  0
    2.0131    0.3600   -0.2806 H   0  0  0  0  0  0  0  0  0  0  0  0
    1.4133    1.2928    0.9973 H   0  0  0  0  0  0  0  0  0  0  0  0
    0.0000    0.0000    0.0000 C   0  0  0  0  0  0  0  0  0  0  0  0
    0.0119   -0.5691   -0.8167 H   0  0  0  0  0  0  0  0  0  0  0  0
    0.0113   -0.5687    0.8161 H   0  0  0  0  0  0  0  0  0  0  0  0
   -1.2273    0.8375    0.0000 N   0  0  0  0  0  4  0  0  0  0  0  0
   -2.0341    0.2463    0.0196 H   0  0  0  0  0  0  0  0  0  0  0  0
   -1.2271    1.4281    0.8069 H   0  0  0  0  0  0  0  0  0  0  0  0
   -1.2458    1.4004   -0.8265 H   0  0  0  0  0  0  0  0  0  0  0  0
   -2.3759    5.3384    2.4304 C   0  0  0  0  0  0  0  0  0  0  0  0
   -3.0565    5.5259    3.1625 H   0  0  0  0  0  0  0  0  0  0  0  0
   -2.8604    5.4458    1.5435 H   0  0  0  0  0  0  0  0  0  0  0  0
   -1.5572    6.0550    2.4952 H   0  0  0  0  0  0  0  0  0  0  0  0
   -1.7563    3.6185    2.5896 S   0  0  0  0  0  0  0  0  0  0  0  0
   -3.3744    2.8167    2.3341 C   0  0  0  0  0  0  0  0  0  0  0  0
   -4.0234    3.1919    2.9888 H   0  0  0  0  0  0  0  0  0  0  0  0
   -3.6789    3.0001    1.4041 H   0  0  0  0  0  0  0  0  0  0  0  0
   -3.2710    1.8359    2.4748 H   0  0  0  0  0  0  0  0  0  0  0  0
  1  5  1  0
  5  8  1  0
  1  2  1  0
  1  3  1  0
  1  4  1  0
  5  6  1  0
  5  7  1  0
  8  9  1  0
  8 10  1  0
  8 11  1  0
 12 16  1  0
 16 17  1  0
 12 13  1  0
 12 14  1  0
 12 15  1  0
 17 18  1  0
 17 19  1  0
 17 20  1  0
M  CHG  1   8   1
M  END
>  <PDB_ID>  (1384) 
pdb4w4o

>  <RESIDUE_NAME>  (1384) 
LYS   MET

>  <FRAG_NAME>  (1384) 
ETAM   MSM

>  <FRAG_ATOM_NUM>  (1384) 
fragi: 11  fragj: 9

>  <atom.prop.CHAIN_ID>  (1384) 
A A A A A A A A A A A Z Z Z Z Z Z Z Z Z

>  <atom.prop.IS_HEAVY_ATOM>  (1384) 
1 0 0 0 1 0 0 1 0 0 0 1 0 0 0 1 1 0 0 0

>  <DIFUSE_FUNC_ATOM>  (1384) 
n/a

>  <FINAL_SINGLE_POINT_ENERGY>  (1384) 
0

>  <NONCOV_INTER_ENERGY_QM>  (1384) 
0

>  <FF_Energy>  (1384) 
-3.7

>  <QM_Energy>  (1384) 
-9.08

>  <source>  (1384) 
ETAM_MSM

>  <Index>  (1384) 
8681

$$$$
ETAM-pdb4w7i-B-LYS-126:MSM-pdb4w7i-B-MET-123
     RDKit          3D

 20 18  0  0  0  0  0  0  0  0999 V2000
    1.2179    0.9051   -0.0000 C   0  0  0  0  0  0  0  0  0  0  0  0
    1.4667    1.1014    0.9511 H   0  0  0  0  0  0  0  0  0  0  0  0
    0.9759    1.7630   -0.4585 H   0  0  0  0  0  0  0  0  0  0  0  0
    2.0790    0.4670   -0.5049 H   0  0  0  0  0  0  0  0  0  0  0  0
    0.0000    0.0000    0.0000 C   0  0  0  0  0  0  0  0  0  0  0  0
    0.0100   -0.5601   -0.8165 H   0  0  0  0  0  0  0  0  0  0  0  0
    0.0098   -0.5599    0.8167 H   0  0  0  0  0  0  0  0  0  0  0  0
   -1.2179    0.8528   -0.0000 N   0  0  0  0  0  4  0  0  0  0  0  0
   -1.5350    0.9802    0.9393 H   0  0  0  0  0  0  0  0  0  0  0  0
   -1.0008    1.7421   -0.4027 H   0  0  0  0  0  0  0  0  0  0  0  0
   -1.9350    0.4083   -0.5370 H   0  0  0  0  0  0  0  0  0  0  0  0
    0.7295    6.2055   -0.5652 C   0  0  0  0  0  0  0  0  0  0  0  0
    1.3841    6.7965   -0.0736 H   0  0  0  0  0  0  0  0  0  0  0  0
   -0.1615    6.6787   -0.5884 H   0  0  0  0  0  0  0  0  0  0  0  0
    1.0805    6.0825   -1.5898 H   0  0  0  0  0  0  0  0  0  0  0  0
    0.5813    4.5833    0.2511 S   0  0  0  0  0  0  0  0  0  0  0  0
   -0.4566    5.1222    1.6333 C   0  0  0  0  0  0  0  0  0  0  0  0
   -1.1775    4.4478    1.7825 H   0  0  0  0  0  0  0  0  0  0  0  0
    0.1072    5.2028    2.4521 H   0  0  0  0  0  0  0  0  0  0  0  0
   -0.8610    6.0069    1.4117 H   0  0  0  0  0  0  0  0  0  0  0  0
  1  5  1  0
  5  8  1  0
  1  2  1  0
  1  3  1  0
  1  4  1  0
  5  6  1  0
  5  7  1  0
  8  9  1  0
  8 10  1  0
  8 11  1  0
 12 16  1  0
 16 17  1  0
 12 13  1  0
 12 14  1  0
 12 15  1  0
 17 18  1  0
 17 19  1  0
 17 20  1  0
M  CHG  1   8   1
M  END
>  <PDB_ID>  (1385) 
pdb4w7i

>  <RESIDUE_NAME>  (1385) 
LYS   MET

>  <FRAG_NAME>  (1385) 
ETAM   MSM

>  <FRAG_ATOM_NUM>  (1385) 
fragi: 11  fragj: 9

>  <atom.prop.CHAIN_ID>  (1385) 
A A A A A A A A A A A Z Z Z Z Z Z Z Z Z

>  <atom.prop.IS_HEAVY_ATOM>  (1385) 
1 0 0 0 1 0 0 1 0 0 0 1 0 0 0 1 1 0 0 0

>  <DIFUSE_FUNC_ATOM>  (1385) 
n/a

>  <FINAL_SINGLE_POINT_ENERGY>  (1385) 
0

>  <NONCOV_INTER_ENERGY_QM>  (1385) 
0

>  <FF_Energy>  (1385) 
-3.98

>  <QM_Energy>  (1385) 
-9.05

>  <source>  (1385) 
ETAM_MSM

>  <Index>  (1385) 
8688

$$$$
ETAM-pdb4w7i-C-LYS-126:MSM-pdb4w7i-C-MET-123
     RDKit          3D

 20 18  0  0  0  0  0  0  0  0999 V2000
    1.2307    0.8755   -0.0000 C   0  0  0  0  0  0  0  0  0  0  0  0
    1.5566    0.9687    0.9436 H   0  0  0  0  0  0  0  0  0  0  0  0
    0.9787    1.7812   -0.3498 H   0  0  0  0  0  0  0  0  0  0  0  0
    2.0392    0.4754   -0.6119 H   0  0  0  0  0  0  0  0  0  0  0  0
    0.0000    0.0000    0.0000 C   0  0  0  0  0  0  0  0  0  0  0  0
    0.0013   -0.5724   -0.8163 H   0  0  0  0  0  0  0  0  0  0  0  0
    0.0015   -0.5726    0.8166 H   0  0  0  0  0  0  0  0  0  0  0  0
   -1.2307    0.8453   -0.0000 N   0  0  0  0  0  4  0  0  0  0  0  0
   -1.2223    1.4393    0.8025 H   0  0  0  0  0  0  0  0  0  0  0  0
   -1.2477    1.4009   -0.8296 H   0  0  0  0  0  0  0  0  0  0  0  0
   -2.0358    0.2543    0.0266 H   0  0  0  0  0  0  0  0  0  0  0  0
   -2.1081    4.1757   -3.4608 C   0  0  0  0  0  0  0  0  0  0  0  0
   -1.7416    5.0835   -3.7100 H   0  0  0  0  0  0  0  0  0  0  0  0
   -3.1122    4.2563   -3.3900 H   0  0  0  0  0  0  0  0  0  0  0  0
   -1.8762    3.4806   -4.2677 H   0  0  0  0  0  0  0  0  0  0  0  0
   -1.3904    3.5898   -1.9008 S   0  0  0  0  0  0  0  0  0  0  0  0
   -2.3544    4.6051   -0.7655 C   0  0  0  0  0  0  0  0  0  0  0  0
   -2.8076    4.0153   -0.0985 H   0  0  0  0  0  0  0  0  0  0  0  0
   -1.7455    5.2402   -0.2928 H   0  0  0  0  0  0  0  0  0  0  0  0
   -3.0393    5.1175   -1.2817 H   0  0  0  0  0  0  0  0  0  0  0  0
  1  5  1  0
  5  8  1  0
  1  2  1  0
  1  3  1  0
  1  4  1  0
  5  6  1  0
  5  7  1  0
  8  9  1  0
  8 10  1  0
  8 11  1  0
 12 16  1  0
 16 17  1  0
 12 13  1  0
 12 14  1  0
 12 15  1  0
 17 18  1  0
 17 19  1  0
 17 20  1  0
M  CHG  1   8   1
M  END
>  <PDB_ID>  (1386) 
pdb4w7i

>  <RESIDUE_NAME>  (1386) 
LYS   MET

>  <FRAG_NAME>  (1386) 
ETAM   MSM

>  <FRAG_ATOM_NUM>  (1386) 
fragi: 11  fragj: 9

>  <atom.prop.CHAIN_ID>  (1386) 
A A A A A A A A A A A Z Z Z Z Z Z Z Z Z

>  <atom.prop.IS_HEAVY_ATOM>  (1386) 
1 0 0 0 1 0 0 1 0 0 0 1 0 0 0 1 1 0 0 0

>  <DIFUSE_FUNC_ATOM>  (1386) 
n/a

>  <FINAL_SINGLE_POINT_ENERGY>  (1386) 
0

>  <NONCOV_INTER_ENERGY_QM>  (1386) 
0

>  <FF_Energy>  (1386) 
-5.5

>  <QM_Energy>  (1386) 
-14.77

>  <source>  (1386) 
ETAM_MSM

>  <Index>  (1386) 
8689

$$$$
ETAM-pdb4w7i-D-LYS-126:MSM-pdb4w7i-D-MET-123
     RDKit          3D

 20 18  0  0  0  0  0  0  0  0999 V2000
    1.2726    0.8375    0.0000 C   0  0  0  0  0  0  0  0  0  0  0  0
    1.2711    1.4155    0.8109 H   0  0  0  0  0  0  0  0  0  0  0  0
    1.2821    1.3989   -0.8223 H   0  0  0  0  0  0  0  0  0  0  0  0
    2.1668    0.2142    0.0130 H   0  0  0  0  0  0  0  0  0  0  0  0
    0.0000    0.0000    0.0000 C   0  0  0  0  0  0  0  0  0  0  0  0
    0.0108   -0.6061   -0.8158 H   0  0  0  0  0  0  0  0  0  0  0  0
    0.0106   -0.6062    0.8162 H   0  0  0  0  0  0  0  0  0  0  0  0
   -1.2726    0.7824    0.0000 N   0  0  0  0  0  4  0  0  0  0  0  0
   -1.7761    0.5904   -0.8409 H   0  0  0  0  0  0  0  0  0  0  0  0
   -1.8221    0.5163    0.7906 H   0  0  0  0  0  0  0  0  0  0  0  0
   -1.0597    1.7572    0.0509 H   0  0  0  0  0  0  0  0  0  0  0  0
   -2.1672   -0.6898   -4.4763 C   0  0  0  0  0  0  0  0  0  0  0  0
   -1.9478   -0.3482   -5.4093 H   0  0  0  0  0  0  0  0  0  0  0  0
   -3.1785   -0.7985   -4.4350 H   0  0  0  0  0  0  0  0  0  0  0  0
   -1.7156   -1.6754   -4.3623 H   0  0  0  0  0  0  0  0  0  0  0  0
   -1.5899    0.4800   -3.2059 S   0  0  0  0  0  0  0  0  0  0  0  0
   -2.8365    1.7673   -3.4144 C   0  0  0  0  0  0  0  0  0  0  0  0
   -3.7244    1.3422   -3.5815 H   0  0  0  0  0  0  0  0  0  0  0  0
   -2.8795    2.3213   -2.5845 H   0  0  0  0  0  0  0  0  0  0  0  0
   -2.5877    2.3441   -4.1915 H   0  0  0  0  0  0  0  0  0  0  0  0
  1  5  1  0
  5  8  1  0
  1  2  1  0
  1  3  1  0
  1  4  1  0
  5  6  1  0
  5  7  1  0
  8  9  1  0
  8 10  1  0
  8 11  1  0
 12 16  1  0
 16 17  1  0
 12 13  1  0
 12 14  1  0
 12 15  1  0
 17 18  1  0
 17 19  1  0
 17 20  1  0
M  CHG  1   8   1
M  END
>  <PDB_ID>  (1387) 
pdb4w7i

>  <RESIDUE_NAME>  (1387) 
LYS   MET

>  <FRAG_NAME>  (1387) 
ETAM   MSM

>  <FRAG_ATOM_NUM>  (1387) 
fragi: 11  fragj: 9

>  <atom.prop.CHAIN_ID>  (1387) 
A A A A A A A A A A A Z Z Z Z Z Z Z Z Z

>  <atom.prop.IS_HEAVY_ATOM>  (1387) 
1 0 0 0 1 0 0 1 0 0 0 1 0 0 0 1 1 0 0 0

>  <DIFUSE_FUNC_ATOM>  (1387) 
n/a

>  <FINAL_SINGLE_POINT_ENERGY>  (1387) 
0

>  <NONCOV_INTER_ENERGY_QM>  (1387) 
0

>  <FF_Energy>  (1387) 
-5.3

>  <QM_Energy>  (1387) 
-15.7

>  <source>  (1387) 
ETAM_MSM

>  <Index>  (1387) 
8690

$$$$
ETAM-pdb4w9u-D-LYS-167:MSM-pdb4w9u-D-MET-150
     RDKit          3D

 20 18  0  0  0  0  0  0  0  0999 V2000
    1.2330    0.9167   -0.0000 C   0  0  0  0  0  0  0  0  0  0  0  0
    1.1767    1.5040    0.7994 H   0  0  0  0  0  0  0  0  0  0  0  0
    1.2113    1.4568   -0.8328 H   0  0  0  0  0  0  0  0  0  0  0  0
    2.1534    0.3340    0.0372 H   0  0  0  0  0  0  0  0  0  0  0  0
    0.0000    0.0000    0.0000 C   0  0  0  0  0  0  0  0  0  0  0  0
    0.0222   -0.5623   -0.8163 H   0  0  0  0  0  0  0  0  0  0  0  0
    0.0225   -0.5625    0.8167 H   0  0  0  0  0  0  0  0  0  0  0  0
   -1.2330    0.8338   -0.0000 N   0  0  0  0  0  4  0  0  0  0  0  0
   -0.9911    1.7836    0.1992 H   0  0  0  0  0  0  0  0  0  0  0  0
   -1.6699    0.7807   -0.8979 H   0  0  0  0  0  0  0  0  0  0  0  0
   -1.8627    0.4947    0.6989 H   0  0  0  0  0  0  0  0  0  0  0  0
   -5.8305    2.0464   -0.8286 C   0  0  0  0  0  0  0  0  0  0  0  0
   -6.7818    2.3011   -0.6165 H   0  0  0  0  0  0  0  0  0  0  0  0
   -5.8082    1.6515   -1.7553 H   0  0  0  0  0  0  0  0  0  0  0  0
   -5.2060    2.9393   -0.8033 H   0  0  0  0  0  0  0  0  0  0  0  0
   -5.1883    0.9036    0.3733 S   0  0  0  0  0  0  0  0  0  0  0  0
   -5.5449    1.8268    1.8665 C   0  0  0  0  0  0  0  0  0  0  0  0
   -6.5356    1.8927    1.9919 H   0  0  0  0  0  0  0  0  0  0  0  0
   -5.1412    1.3592    2.6548 H   0  0  0  0  0  0  0  0  0  0  0  0
   -5.1585    2.7471    1.7928 H   0  0  0  0  0  0  0  0  0  0  0  0
  1  5  1  0
  5  8  1  0
  1  2  1  0
  1  3  1  0
  1  4  1  0
  5  6  1  0
  5  7  1  0
  8  9  1  0
  8 10  1  0
  8 11  1  0
 12 16  1  0
 16 17  1  0
 12 13  1  0
 12 14  1  0
 12 15  1  0
 17 18  1  0
 17 19  1  0
 17 20  1  0
M  CHG  1   8   1
M  END
>  <PDB_ID>  (1388) 
pdb4w9u

>  <RESIDUE_NAME>  (1388) 
LYS   MET

>  <FRAG_NAME>  (1388) 
ETAM   MSM

>  <FRAG_ATOM_NUM>  (1388) 
fragi: 11  fragj: 9

>  <atom.prop.CHAIN_ID>  (1388) 
A A A A A A A A A A A Z Z Z Z Z Z Z Z Z

>  <atom.prop.IS_HEAVY_ATOM>  (1388) 
1 0 0 0 1 0 0 1 0 0 0 1 0 0 0 1 1 0 0 0

>  <DIFUSE_FUNC_ATOM>  (1388) 
n/a

>  <FINAL_SINGLE_POINT_ENERGY>  (1388) 
0

>  <NONCOV_INTER_ENERGY_QM>  (1388) 
0

>  <FF_Energy>  (1388) 
-3.56

>  <QM_Energy>  (1388) 
-9.45

>  <source>  (1388) 
ETAM_MSM

>  <Index>  (1388) 
8701

$$$$
ETAM-pdb3v97-A-LYS-113:MSM-pdb3v97-A-MET-110
     RDKit          3D

 20 18  0  0  0  0  0  0  0  0999 V2000
    1.2234    0.8486   -0.0000 C   0  0  0  0  0  0  0  0  0  0  0  0
    1.2368    1.4221    0.8170 H   0  0  0  0  0  0  0  0  0  0  0  0
    1.2361    1.4228   -0.8160 H   0  0  0  0  0  0  0  0  0  0  0  0
    2.1357    0.2522    0.0001 H   0  0  0  0  0  0  0  0  0  0  0  0
    0.0000    0.0000    0.0000 C   0  0  0  0  0  0  0  0  0  0  0  0
   -0.0123   -0.5785   -0.8164 H   0  0  0  0  0  0  0  0  0  0  0  0
   -0.0126   -0.5800    0.8159 H   0  0  0  0  0  0  0  0  0  0  0  0
   -1.2234    0.8523   -0.0000 N   0  0  0  0  0  4  0  0  0  0  0  0
   -2.0331    0.2672    0.0319 H   0  0  0  0  0  0  0  0  0  0  0  0
   -1.2092    1.4496    0.8000 H   0  0  0  0  0  0  0  0  0  0  0  0
   -1.2404    1.4048   -0.8317 H   0  0  0  0  0  0  0  0  0  0  0  0
    0.6538    5.4299   -1.1190 C   0  0  0  0  0  0  0  0  0  0  0  0
    0.6665    5.3631   -0.1301 H   0  0  0  0  0  0  0  0  0  0  0  0
   -0.0866    6.0134   -1.4240 H   0  0  0  0  0  0  0  0  0  0  0  0
    1.6036    5.8365   -1.4665 H   0  0  0  0  0  0  0  0  0  0  0  0
    0.5071    3.7684   -1.8695 S   0  0  0  0  0  0  0  0  0  0  0  0
    0.5490    4.1961   -3.6096 C   0  0  0  0  0  0  0  0  0  0  0  0
    1.2893    4.8478   -3.7769 H   0  0  0  0  0  0  0  0  0  0  0  0
    0.7038    3.3710   -4.1545 H   0  0  0  0  0  0  0  0  0  0  0  0
   -0.3241    4.6091   -3.8745 H   0  0  0  0  0  0  0  0  0  0  0  0
  1  5  1  0
  5  8  1  0
  1  2  1  0
  1  3  1  0
  1  4  1  0
  5  6  1  0
  5  7  1  0
  8  9  1  0
  8 10  1  0
  8 11  1  0
 12 16  1  0
 16 17  1  0
 12 13  1  0
 12 14  1  0
 12 15  1  0
 17 18  1  0
 17 19  1  0
 17 20  1  0
M  CHG  1   8   1
M  END
>  <PDB_ID>  (1389) 
pdb3v97

>  <RESIDUE_NAME>  (1389) 
LYS   MET

>  <FRAG_NAME>  (1389) 
ETAM   MSM

>  <FRAG_ATOM_NUM>  (1389) 
fragi: 11  fragj: 9

>  <atom.prop.CHAIN_ID>  (1389) 
A A A A A A A A A A A Z Z Z Z Z Z Z Z Z

>  <atom.prop.IS_HEAVY_ATOM>  (1389) 
1 0 0 0 1 0 0 1 0 0 0 1 0 0 0 1 1 0 0 0

>  <DIFUSE_FUNC_ATOM>  (1389) 
n/a

>  <FINAL_SINGLE_POINT_ENERGY>  (1389) 
0

>  <NONCOV_INTER_ENERGY_QM>  (1389) 
0

>  <FF_Energy>  (1389) 
-4.22

>  <QM_Energy>  (1389) 
-11.28

>  <source>  (1389) 
ETAM_MSM

>  <Index>  (1389) 
8702

$$$$
ETAM-pdb3vcn-A-LYS-138:MSM-pdb3vcn-A-MET-167
     RDKit          3D

 20 18  0  0  0  0  0  0  0  0999 V2000
    1.2652    0.8105    0.0000 C   0  0  0  0  0  0  0  0  0  0  0  0
    1.3698    1.2574    0.8845 H   0  0  0  0  0  0  0  0  0  0  0  0
    1.2180    1.4932   -0.7240 H   0  0  0  0  0  0  0  0  0  0  0  0
    2.1443    0.1898   -0.1728 H   0  0  0  0  0  0  0  0  0  0  0  0
    0.0000    0.0000    0.0000 C   0  0  0  0  0  0  0  0  0  0  0  0
   -0.0185   -0.5989   -0.8162 H   0  0  0  0  0  0  0  0  0  0  0  0
   -0.0186   -0.5994    0.8162 H   0  0  0  0  0  0  0  0  0  0  0  0
   -1.2652    0.8301   -0.0000 N   0  0  0  0  0  4  0  0  0  0  0  0
   -1.1150    1.6401    0.5584 H   0  0  0  0  0  0  0  0  0  0  0  0
   -1.4746    1.0918   -0.9373 H   0  0  0  0  0  0  0  0  0  0  0  0
   -2.0054    0.2834    0.3787 H   0  0  0  0  0  0  0  0  0  0  0  0
   -3.6604    0.7014    3.6258 C   0  0  0  0  0  0  0  0  0  0  0  0
   -3.5184    1.6371    3.2100 H   0  0  0  0  0  0  0  0  0  0  0  0
   -3.3922    0.8196    4.6179 H   0  0  0  0  0  0  0  0  0  0  0  0
   -4.7242    0.4676    3.5846 H   0  0  0  0  0  0  0  0  0  0  0  0
   -2.5669   -0.5198    2.8192 S   0  0  0  0  0  0  0  0  0  0  0  0
   -3.0926   -2.0590    3.5627 C   0  0  0  0  0  0  0  0  0  0  0  0
   -2.8003   -2.0879    4.5208 H   0  0  0  0  0  0  0  0  0  0  0  0
   -4.0906   -2.1306    3.5193 H   0  0  0  0  0  0  0  0  0  0  0  0
   -2.6839   -2.8290    3.0690 H   0  0  0  0  0  0  0  0  0  0  0  0
  1  5  1  0
  5  8  1  0
  1  2  1  0
  1  3  1  0
  1  4  1  0
  5  6  1  0
  5  7  1  0
  8  9  1  0
  8 10  1  0
  8 11  1  0
 12 16  1  0
 16 17  1  0
 12 13  1  0
 12 14  1  0
 12 15  1  0
 17 18  1  0
 17 19  1  0
 17 20  1  0
M  CHG  1   8   1
M  END
>  <PDB_ID>  (1390) 
pdb3vcn

>  <RESIDUE_NAME>  (1390) 
LYS   MET

>  <FRAG_NAME>  (1390) 
ETAM   MSM

>  <FRAG_ATOM_NUM>  (1390) 
fragi: 11  fragj: 9

>  <atom.prop.CHAIN_ID>  (1390) 
A A A A A A A A A A A Z Z Z Z Z Z Z Z Z

>  <atom.prop.IS_HEAVY_ATOM>  (1390) 
1 0 0 0 1 0 0 1 0 0 0 1 0 0 0 1 1 0 0 0

>  <DIFUSE_FUNC_ATOM>  (1390) 
n/a

>  <FINAL_SINGLE_POINT_ENERGY>  (1390) 
0

>  <NONCOV_INTER_ENERGY_QM>  (1390) 
0

>  <FF_Energy>  (1390) 
-5.64

>  <QM_Energy>  (1390) 
-14.73

>  <source>  (1390) 
ETAM_MSM

>  <Index>  (1390) 
8716

$$$$
ETAM-pdb3vd8-A-LYS-1085:MSM-pdb3vd8-A-MET-1063
     RDKit          3D

 20 18  0  0  0  0  0  0  0  0999 V2000
    1.2481    0.8719    0.0000 C   0  0  0  0  0  0  0  0  0  0  0  0
    2.0476    0.2804   -0.0353 H   0  0  0  0  0  0  0  0  0  0  0  0
    1.2553    1.4133    0.8336 H   0  0  0  0  0  0  0  0  0  0  0  0
    1.2667    1.5431   -0.8585 H   0  0  0  0  0  0  0  0  0  0  0  0
    0.0000    0.0000    0.0000 C   0  0  0  0  0  0  0  0  0  0  0  0
    0.0118   -0.5837   -0.8162 H   0  0  0  0  0  0  0  0  0  0  0  0
    0.0117   -0.5836    0.8164 H   0  0  0  0  0  0  0  0  0  0  0  0
   -1.2481    0.8143    0.0000 N   0  0  0  0  0  4  0  0  0  0  0  0
   -1.3473    1.2675    0.8851 H   0  0  0  0  0  0  0  0  0  0  0  0
   -1.1948    1.5009   -0.7241 H   0  0  0  0  0  0  0  0  0  0  0  0
   -2.0327    0.2169   -0.1615 H   0  0  0  0  0  0  0  0  0  0  0  0
    1.1800   -3.4532    2.8136 C   0  0  0  0  0  0  0  0  0  0  0  0
    0.9416   -3.8008    1.8753 H   0  0  0  0  0  0  0  0  0  0  0  0
    0.3203   -3.5614    3.3668 H   0  0  0  0  0  0  0  0  0  0  0  0
    1.9431   -4.1069    3.2360 H   0  0  0  0  0  0  0  0  0  0  0  0
    1.6801   -1.7180    2.7446 S   0  0  0  0  0  0  0  0  0  0  0  0
    1.7318   -1.2957    4.4826 C   0  0  0  0  0  0  0  0  0  0  0  0
    2.6658   -1.4021    4.8276 H   0  0  0  0  0  0  0  0  0  0  0  0
    1.4401   -0.3459    4.6072 H   0  0  0  0  0  0  0  0  0  0  0  0
    1.1186   -1.9003    4.9940 H   0  0  0  0  0  0  0  0  0  0  0  0
  1  5  1  0
  5  8  1  0
  1  2  1  0
  1  3  1  0
  1  4  1  0
  5  6  1  0
  5  7  1  0
  8  9  1  0
  8 10  1  0
  8 11  1  0
 12 16  1  0
 16 17  1  0
 12 13  1  0
 12 14  1  0
 12 15  1  0
 17 18  1  0
 17 19  1  0
 17 20  1  0
M  CHG  1   8   1
M  END
>  <PDB_ID>  (1391) 
pdb3vd8

>  <RESIDUE_NAME>  (1391) 
LYS   MET

>  <FRAG_NAME>  (1391) 
ETAM   MSM

>  <FRAG_ATOM_NUM>  (1391) 
fragi: 11  fragj: 9

>  <atom.prop.CHAIN_ID>  (1391) 
A A A A A A A A A A A Z Z Z Z Z Z Z Z Z

>  <atom.prop.IS_HEAVY_ATOM>  (1391) 
1 0 0 0 1 0 0 1 0 0 0 1 0 0 0 1 1 0 0 0

>  <DIFUSE_FUNC_ATOM>  (1391) 
n/a

>  <FINAL_SINGLE_POINT_ENERGY>  (1391) 
0

>  <NONCOV_INTER_ENERGY_QM>  (1391) 
0

>  <FF_Energy>  (1391) 
-3.39

>  <QM_Energy>  (1391) 
-8.47

>  <source>  (1391) 
ETAM_MSM

>  <Index>  (1391) 
8719

$$$$
ETAM-pdb4wie-A-LYS-141:MSM-pdb4wie-A-MET-239
     RDKit          3D

 20 18  0  0  0  0  0  0  0  0999 V2000
    1.2562    0.8836   -0.0000 C   0  0  0  0  0  0  0  0  0  0  0  0
    1.2717    1.4068    0.8399 H   0  0  0  0  0  0  0  0  0  0  0  0
    1.2221    1.4766   -0.7913 H   0  0  0  0  0  0  0  0  0  0  0  0
    2.1591    0.2752   -0.0527 H   0  0  0  0  0  0  0  0  0  0  0  0
    0.0000    0.0000    0.0000 C   0  0  0  0  0  0  0  0  0  0  0  0
    0.0294   -0.5908   -0.8157 H   0  0  0  0  0  0  0  0  0  0  0  0
    0.0292   -0.5916    0.8164 H   0  0  0  0  0  0  0  0  0  0  0  0
   -1.2562    0.7804   -0.0000 N   0  0  0  0  0  4  0  0  0  0  0  0
   -1.0685    1.7200    0.2908 H   0  0  0  0  0  0  0  0  0  0  0  0
   -1.6456    0.7916   -0.9226 H   0  0  0  0  0  0  0  0  0  0  0  0
   -1.9112    0.3629    0.6314 H   0  0  0  0  0  0  0  0  0  0  0  0
   -1.7518    1.0291    4.5968 C   0  0  0  0  0  0  0  0  0  0  0  0
   -2.3730    1.7286    4.2389 H   0  0  0  0  0  0  0  0  0  0  0  0
   -1.6736    1.1365    5.5897 H   0  0  0  0  0  0  0  0  0  0  0  0
   -2.1568    0.0422    4.3730 H   0  0  0  0  0  0  0  0  0  0  0  0
   -0.1200    1.1580    3.8081 S   0  0  0  0  0  0  0  0  0  0  0  0
    0.1362    2.9332    3.9488 C   0  0  0  0  0  0  0  0  0  0  0  0
   -0.6135    3.4140    3.4940 H   0  0  0  0  0  0  0  0  0  0  0  0
    0.1604    3.1896    4.9148 H   0  0  0  0  0  0  0  0  0  0  0  0
    1.0035    3.1784    3.5156 H   0  0  0  0  0  0  0  0  0  0  0  0
  1  5  1  0
  5  8  1  0
  1  2  1  0
  1  3  1  0
  1  4  1  0
  5  6  1  0
  5  7  1  0
  8  9  1  0
  8 10  1  0
  8 11  1  0
 12 16  1  0
 16 17  1  0
 12 13  1  0
 12 14  1  0
 12 15  1  0
 17 18  1  0
 17 19  1  0
 17 20  1  0
M  CHG  1   8   1
M  END
>  <PDB_ID>  (1392) 
pdb4wie

>  <RESIDUE_NAME>  (1392) 
LYS   MET

>  <FRAG_NAME>  (1392) 
ETAM   MSM

>  <FRAG_ATOM_NUM>  (1392) 
fragi: 11  fragj: 9

>  <atom.prop.CHAIN_ID>  (1392) 
A A A A A A A A A A A Z Z Z Z Z Z Z Z Z

>  <atom.prop.IS_HEAVY_ATOM>  (1392) 
1 0 0 0 1 0 0 1 0 0 0 1 0 0 0 1 1 0 0 0

>  <DIFUSE_FUNC_ATOM>  (1392) 
n/a

>  <FINAL_SINGLE_POINT_ENERGY>  (1392) 
0

>  <NONCOV_INTER_ENERGY_QM>  (1392) 
0

>  <FF_Energy>  (1392) 
-4.07

>  <QM_Energy>  (1392) 
-9.79

>  <source>  (1392) 
ETAM_MSM

>  <Index>  (1392) 
8740

$$$$
ETAM-pdb4wid-B-LYS-300:MSM-pdb4wid-B-MET-296
     RDKit          3D

 20 18  0  0  0  0  0  0  0  0999 V2000
    1.2432    0.8570    0.0000 C   0  0  0  0  0  0  0  0  0  0  0  0
    1.2520    1.4048    0.8271 H   0  0  0  0  0  0  0  0  0  0  0  0
    1.2303    1.4362   -0.8058 H   0  0  0  0  0  0  0  0  0  0  0  0
    2.1339    0.2291   -0.0232 H   0  0  0  0  0  0  0  0  0  0  0  0
    0.0000    0.0000    0.0000 C   0  0  0  0  0  0  0  0  0  0  0  0
    0.0083   -0.5910   -0.8160 H   0  0  0  0  0  0  0  0  0  0  0  0
    0.0079   -0.5913    0.8160 H   0  0  0  0  0  0  0  0  0  0  0  0
   -1.2432    0.8083    0.0000 N   0  0  0  0  0  4  0  0  0  0  0  0
   -1.1636    1.5443   -0.6725 H   0  0  0  0  0  0  0  0  0  0  0  0
   -2.0205    0.2252   -0.2365 H   0  0  0  0  0  0  0  0  0  0  0  0
   -1.3862    1.2018    0.9089 H   0  0  0  0  0  0  0  0  0  0  0  0
    0.1104   -0.3147    3.5678 C   0  0  0  0  0  0  0  0  0  0  0  0
   -0.9002   -0.3048    3.5341 H   0  0  0  0  0  0  0  0  0  0  0  0
    0.4441    0.4678    3.0207 H   0  0  0  0  0  0  0  0  0  0  0  0
    0.4401   -0.2039    4.6008 H   0  0  0  0  0  0  0  0  0  0  0  0
    0.7489   -1.8728    2.8919 S   0  0  0  0  0  0  0  0  0  0  0  0
   -0.5856   -2.9934    3.3801 C   0  0  0  0  0  0  0  0  0  0  0  0
   -0.6976   -3.6931    2.6769 H   0  0  0  0  0  0  0  0  0  0  0  0
   -0.3508   -3.4218    4.2506 H   0  0  0  0  0  0  0  0  0  0  0  0
   -1.4306   -2.4721    3.4773 H   0  0  0  0  0  0  0  0  0  0  0  0
  1  5  1  0
  5  8  1  0
  1  2  1  0
  1  3  1  0
  1  4  1  0
  5  6  1  0
  5  7  1  0
  8  9  1  0
  8 10  1  0
  8 11  1  0
 12 16  1  0
 16 17  1  0
 12 13  1  0
 12 14  1  0
 12 15  1  0
 17 18  1  0
 17 19  1  0
 17 20  1  0
M  CHG  1   8   1
M  END
>  <PDB_ID>  (1393) 
pdb4wid

>  <RESIDUE_NAME>  (1393) 
LYS   MET

>  <FRAG_NAME>  (1393) 
ETAM   MSM

>  <FRAG_ATOM_NUM>  (1393) 
fragi: 11  fragj: 9

>  <atom.prop.CHAIN_ID>  (1393) 
A A A A A A A A A A A Z Z Z Z Z Z Z Z Z

>  <atom.prop.IS_HEAVY_ATOM>  (1393) 
1 0 0 0 1 0 0 1 0 0 0 1 0 0 0 1 1 0 0 0

>  <DIFUSE_FUNC_ATOM>  (1393) 
n/a

>  <FINAL_SINGLE_POINT_ENERGY>  (1393) 
0

>  <NONCOV_INTER_ENERGY_QM>  (1393) 
0

>  <FF_Energy>  (1393) 
-0.31

>  <QM_Energy>  (1393) 
-5.74

>  <source>  (1393) 
ETAM_MSM

>  <Index>  (1393) 
8742

$$$$
ETAM-pdb3vmm-A-LYS-265:MSM-pdb3vmm-A-MET-334
     RDKit          3D

 20 18  0  0  0  0  0  0  0  0999 V2000
    1.3049    0.8024   -0.0000 C   0  0  0  0  0  0  0  0  0  0  0  0
    1.9825    0.2799    0.5110 H   0  0  0  0  0  0  0  0  0  0  0  0
    1.1272    1.6709    0.4544 H   0  0  0  0  0  0  0  0  0  0  0  0
    1.6599    0.9789   -1.0153 H   0  0  0  0  0  0  0  0  0  0  0  0
    0.0000    0.0000    0.0000 C   0  0  0  0  0  0  0  0  0  0  0  0
    0.0209   -0.6389   -0.8158 H   0  0  0  0  0  0  0  0  0  0  0  0
    0.0207   -0.6390    0.8168 H   0  0  0  0  0  0  0  0  0  0  0  0
   -1.3049    0.7193    0.0000 N   0  0  0  0  0  4  0  0  0  0  0  0
   -2.0111    0.1240   -0.3822 H   0  0  0  0  0  0  0  0  0  0  0  0
   -1.5465    0.9674    0.9375 H   0  0  0  0  0  0  0  0  0  0  0  0
   -1.2264    1.5460   -0.5562 H   0  0  0  0  0  0  0  0  0  0  0  0
   -5.1188   -2.9274   -1.3307 C   0  0  0  0  0  0  0  0  0  0  0  0
   -4.4035   -3.6708   -1.3455 H   0  0  0  0  0  0  0  0  0  0  0  0
   -5.2289   -2.6509   -2.3176 H   0  0  0  0  0  0  0  0  0  0  0  0
   -6.0581   -3.3611   -0.9876 H   0  0  0  0  0  0  0  0  0  0  0  0
   -4.5522   -1.5232   -0.3393 S   0  0  0  0  0  0  0  0  0  0  0  0
   -5.3058   -0.1644   -1.2306 C   0  0  0  0  0  0  0  0  0  0  0  0
   -6.3018   -0.2266   -1.1573 H   0  0  0  0  0  0  0  0  0  0  0  0
   -4.9981    0.7052   -0.8403 H   0  0  0  0  0  0  0  0  0  0  0  0
   -5.0412   -0.2074   -2.1948 H   0  0  0  0  0  0  0  0  0  0  0  0
  1  5  1  0
  5  8  1  0
  1  2  1  0
  1  3  1  0
  1  4  1  0
  5  6  1  0
  5  7  1  0
  8  9  1  0
  8 10  1  0
  8 11  1  0
 12 16  1  0
 16 17  1  0
 12 13  1  0
 12 14  1  0
 12 15  1  0
 17 18  1  0
 17 19  1  0
 17 20  1  0
M  CHG  1   8   1
M  END
>  <PDB_ID>  (1394) 
pdb3vmm

>  <RESIDUE_NAME>  (1394) 
LYS   MET

>  <FRAG_NAME>  (1394) 
ETAM   MSM

>  <FRAG_ATOM_NUM>  (1394) 
fragi: 11  fragj: 9

>  <atom.prop.CHAIN_ID>  (1394) 
A A A A A A A A A A A Z Z Z Z Z Z Z Z Z

>  <atom.prop.IS_HEAVY_ATOM>  (1394) 
1 0 0 0 1 0 0 1 0 0 0 1 0 0 0 1 1 0 0 0

>  <DIFUSE_FUNC_ATOM>  (1394) 
n/a

>  <FINAL_SINGLE_POINT_ENERGY>  (1394) 
0

>  <NONCOV_INTER_ENERGY_QM>  (1394) 
0

>  <FF_Energy>  (1394) 
-3.85

>  <QM_Energy>  (1394) 
-9.83

>  <source>  (1394) 
ETAM_MSM

>  <Index>  (1394) 
8760

$$$$
ETAM-pdb4wq4-A-LYS-314:MSM-pdb4wq4-A-MET-310
     RDKit          3D

 20 18  0  0  0  0  0  0  0  0999 V2000
    1.2427    0.8840   -0.0000 C   0  0  0  0  0  0  0  0  0  0  0  0
    1.2267    1.4489    0.8060 H   0  0  0  0  0  0  0  0  0  0  0  0
    1.2487    1.4172   -0.8272 H   0  0  0  0  0  0  0  0  0  0  0  0
    2.1289    0.2499    0.0248 H   0  0  0  0  0  0  0  0  0  0  0  0
    0.0000    0.0000    0.0000 C   0  0  0  0  0  0  0  0  0  0  0  0
    0.0233   -0.5852   -0.8162 H   0  0  0  0  0  0  0  0  0  0  0  0
    0.0236   -0.5860    0.8159 H   0  0  0  0  0  0  0  0  0  0  0  0
   -1.2427    0.7968   -0.0000 N   0  0  0  0  0  4  0  0  0  0  0  0
   -1.4582    1.0862   -0.9345 H   0  0  0  0  0  0  0  0  0  0  0  0
   -1.9982    0.2440    0.3570 H   0  0  0  0  0  0  0  0  0  0  0  0
   -1.1241    1.6062    0.5772 H   0  0  0  0  0  0  0  0  0  0  0  0
   -0.4319    0.4317    4.1600 C   0  0  0  0  0  0  0  0  0  0  0  0
   -1.2429    1.0581    4.2970 H   0  0  0  0  0  0  0  0  0  0  0  0
    0.1857    0.9521    3.5141 H   0  0  0  0  0  0  0  0  0  0  0  0
    0.0810    0.3107    5.1141 H   0  0  0  0  0  0  0  0  0  0  0  0
   -0.9350   -1.1083    3.4504 S   0  0  0  0  0  0  0  0  0  0  0  0
   -2.5607   -1.2757    4.1489 C   0  0  0  0  0  0  0  0  0  0  0  0
   -3.2520   -0.9852    3.4817 H   0  0  0  0  0  0  0  0  0  0  0  0
   -2.7297   -2.2327    4.3986 H   0  0  0  0  0  0  0  0  0  0  0  0
   -2.6411   -0.7057    4.9704 H   0  0  0  0  0  0  0  0  0  0  0  0
  1  5  1  0
  5  8  1  0
  1  2  1  0
  1  3  1  0
  1  4  1  0
  5  6  1  0
  5  7  1  0
  8  9  1  0
  8 10  1  0
  8 11  1  0
 12 16  1  0
 16 17  1  0
 12 13  1  0
 12 14  1  0
 12 15  1  0
 17 18  1  0
 17 19  1  0
 17 20  1  0
M  CHG  1   8   1
M  END
>  <PDB_ID>  (1395) 
pdb4wq4

>  <RESIDUE_NAME>  (1395) 
LYS   MET

>  <FRAG_NAME>  (1395) 
ETAM   MSM

>  <FRAG_ATOM_NUM>  (1395) 
fragi: 11  fragj: 9

>  <atom.prop.CHAIN_ID>  (1395) 
A A A A A A A A A A A Z Z Z Z Z Z Z Z Z

>  <atom.prop.IS_HEAVY_ATOM>  (1395) 
1 0 0 0 1 0 0 1 0 0 0 1 0 0 0 1 1 0 0 0

>  <DIFUSE_FUNC_ATOM>  (1395) 
n/a

>  <FINAL_SINGLE_POINT_ENERGY>  (1395) 
0

>  <NONCOV_INTER_ENERGY_QM>  (1395) 
0

>  <FF_Energy>  (1395) 
-3.64

>  <QM_Energy>  (1395) 
-8.88

>  <source>  (1395) 
ETAM_MSM

>  <Index>  (1395) 
8775

$$$$
ETAM-pdb3vqi-D-LYS-145:MSM-pdb3vqi-D-MET-159
     RDKit          3D

 20 18  0  0  0  0  0  0  0  0999 V2000
    1.2489    0.8740    0.0000 C   0  0  0  0  0  0  0  0  0  0  0  0
    1.1165    1.6177   -0.6560 H   0  0  0  0  0  0  0  0  0  0  0  0
    2.0280    0.3146   -0.2854 H   0  0  0  0  0  0  0  0  0  0  0  0
    1.4709    1.3077    0.9751 H   0  0  0  0  0  0  0  0  0  0  0  0
    0.0000    0.0000    0.0000 C   0  0  0  0  0  0  0  0  0  0  0  0
    0.0140   -0.5840   -0.8169 H   0  0  0  0  0  0  0  0  0  0  0  0
    0.0138   -0.5844    0.8162 H   0  0  0  0  0  0  0  0  0  0  0  0
   -1.2489    0.8108    0.0000 N   0  0  0  0  0  4  0  0  0  0  0  0
   -1.0749    1.6874    0.4480 H   0  0  0  0  0  0  0  0  0  0  0  0
   -1.5413    0.9689   -0.9429 H   0  0  0  0  0  0  0  0  0  0  0  0
   -1.9638    0.3176    0.4943 H   0  0  0  0  0  0  0  0  0  0  0  0
   -3.5502    0.4701    3.6786 C   0  0  0  0  0  0  0  0  0  0  0  0
   -2.6319    0.7127    4.0606 H   0  0  0  0  0  0  0  0  0  0  0  0
   -3.6777   -0.5262    3.8731 H   0  0  0  0  0  0  0  0  0  0  0  0
   -4.3132    1.0343    4.2149 H   0  0  0  0  0  0  0  0  0  0  0  0
   -3.6015    0.7808    1.9018 S   0  0  0  0  0  0  0  0  0  0  0  0
   -4.2479   -0.7927    1.2845 C   0  0  0  0  0  0  0  0  0  0  0  0
   -4.6768   -1.2879    2.0372 H   0  0  0  0  0  0  0  0  0  0  0  0
   -4.9216   -0.6115    0.5708 H   0  0  0  0  0  0  0  0  0  0  0  0
   -3.4947   -1.3311    0.9111 H   0  0  0  0  0  0  0  0  0  0  0  0
  1  5  1  0
  5  8  1  0
  1  2  1  0
  1  3  1  0
  1  4  1  0
  5  6  1  0
  5  7  1  0
  8  9  1  0
  8 10  1  0
  8 11  1  0
 12 16  1  0
 16 17  1  0
 12 13  1  0
 12 14  1  0
 12 15  1  0
 17 18  1  0
 17 19  1  0
 17 20  1  0
M  CHG  1   8   1
M  END
>  <PDB_ID>  (1396) 
pdb3vqi

>  <RESIDUE_NAME>  (1396) 
LYS   MET

>  <FRAG_NAME>  (1396) 
ETAM   MSM

>  <FRAG_ATOM_NUM>  (1396) 
fragi: 11  fragj: 9

>  <atom.prop.CHAIN_ID>  (1396) 
A A A A A A A A A A A Z Z Z Z Z Z Z Z Z

>  <atom.prop.IS_HEAVY_ATOM>  (1396) 
1 0 0 0 1 0 0 1 0 0 0 1 0 0 0 1 1 0 0 0

>  <DIFUSE_FUNC_ATOM>  (1396) 
n/a

>  <FINAL_SINGLE_POINT_ENERGY>  (1396) 
0

>  <NONCOV_INTER_ENERGY_QM>  (1396) 
0

>  <FF_Energy>  (1396) 
-3.48

>  <QM_Energy>  (1396) 
-12.24

>  <source>  (1396) 
ETAM_MSM

>  <Index>  (1396) 
8779

$$$$
ETAM-pdb4wwj-A-LYS-189:MSM-pdb4wwj-A-MET-193
     RDKit          3D

 20 18  0  0  0  0  0  0  0  0999 V2000
    1.2115    0.9347    0.0000 C   0  0  0  0  0  0  0  0  0  0  0  0
    1.0306    1.6765    0.5993 H   0  0  0  0  0  0  0  0  0  0  0  0
    1.4040    1.1926   -0.9153 H   0  0  0  0  0  0  0  0  0  0  0  0
    2.0372    0.3416    0.3933 H   0  0  0  0  0  0  0  0  0  0  0  0
    0.0000    0.0000    0.0000 C   0  0  0  0  0  0  0  0  0  0  0  0
    0.0557   -0.5760   -0.8166 H   0  0  0  0  0  0  0  0  0  0  0  0
    0.0553   -0.5760    0.8158 H   0  0  0  0  0  0  0  0  0  0  0  0
   -1.2115    0.7718   -0.0000 N   0  0  0  0  0  4  0  0  0  0  0  0
   -1.6070    0.8156    0.9268 H   0  0  0  0  0  0  0  0  0  0  0  0
   -1.0349    1.7146   -0.3111 H   0  0  0  0  0  0  0  0  0  0  0  0
   -1.8973    0.3607   -0.6143 H   0  0  0  0  0  0  0  0  0  0  0  0
   -0.0242    1.8380    3.8330 C   0  0  0  0  0  0  0  0  0  0  0  0
    0.7228    1.9678    3.1160 H   0  0  0  0  0  0  0  0  0  0  0  0
   -0.0020    0.8103    4.0101 H   0  0  0  0  0  0  0  0  0  0  0  0
    0.2836    2.3504    4.7444 H   0  0  0  0  0  0  0  0  0  0  0  0
   -1.6257    2.3214    3.1609 S   0  0  0  0  0  0  0  0  0  0  0  0
   -1.1878    3.3577    1.7503 C   0  0  0  0  0  0  0  0  0  0  0  0
   -1.6974    4.2152    1.8005 H   0  0  0  0  0  0  0  0  0  0  0  0
   -0.2073    3.5476    1.7730 H   0  0  0  0  0  0  0  0  0  0  0  0
   -1.4187    2.8781    0.9049 H   0  0  0  0  0  0  0  0  0  0  0  0
  1  5  1  0
  5  8  1  0
  1  2  1  0
  1  3  1  0
  1  4  1  0
  5  6  1  0
  5  7  1  0
  8  9  1  0
  8 10  1  0
  8 11  1  0
 12 16  1  0
 16 17  1  0
 12 13  1  0
 12 14  1  0
 12 15  1  0
 17 18  1  0
 17 19  1  0
 17 20  1  0
M  CHG  1   8   1
M  END
>  <PDB_ID>  (1397) 
pdb4wwj

>  <RESIDUE_NAME>  (1397) 
LYS   MET

>  <FRAG_NAME>  (1397) 
ETAM   MSM

>  <FRAG_ATOM_NUM>  (1397) 
fragi: 11  fragj: 9

>  <atom.prop.CHAIN_ID>  (1397) 
A A A A A A A A A A A Z Z Z Z Z Z Z Z Z

>  <atom.prop.IS_HEAVY_ATOM>  (1397) 
1 0 0 0 1 0 0 1 0 0 0 1 0 0 0 1 1 0 0 0

>  <DIFUSE_FUNC_ATOM>  (1397) 
n/a

>  <FINAL_SINGLE_POINT_ENERGY>  (1397) 
0

>  <NONCOV_INTER_ENERGY_QM>  (1397) 
0

>  <FF_Energy>  (1397) 
0.8

>  <QM_Energy>  (1397) 
-6.77

>  <source>  (1397) 
ETAM_MSM

>  <Index>  (1397) 
8786

$$$$
ETAM-pdb4wwj-B-LYS-189:MSM-pdb4wwj-B-MET-193
     RDKit          3D

 20 18  0  0  0  0  0  0  0  0999 V2000
    1.2462    0.8783    0.0000 C   0  0  0  0  0  0  0  0  0  0  0  0
    1.3139    1.3286    0.8672 H   0  0  0  0  0  0  0  0  0  0  0  0
    1.1903    1.5031   -0.7520 H   0  0  0  0  0  0  0  0  0  0  0  0
    2.1104    0.2281   -0.1356 H   0  0  0  0  0  0  0  0  0  0  0  0
    0.0000    0.0000    0.0000 C   0  0  0  0  0  0  0  0  0  0  0  0
    0.0343   -0.5977   -0.8161 H   0  0  0  0  0  0  0  0  0  0  0  0
    0.0335   -0.5976    0.8158 H   0  0  0  0  0  0  0  0  0  0  0  0
   -1.2462    0.7658    0.0000 N   0  0  0  0  0  4  0  0  0  0  0  0
   -1.7635    0.5812    0.8407 H   0  0  0  0  0  0  0  0  0  0  0  0
   -1.0464    1.7487   -0.0494 H   0  0  0  0  0  0  0  0  0  0  0  0
   -1.8084    0.5085   -0.7909 H   0  0  0  0  0  0  0  0  0  0  0  0
    1.0452    0.3215    3.7945 C   0  0  0  0  0  0  0  0  0  0  0  0
    1.6863    0.7855    3.1391 H   0  0  0  0  0  0  0  0  0  0  0  0
    1.0573   -0.6706    3.5273 H   0  0  0  0  0  0  0  0  0  0  0  0
    1.4667    0.4071    4.7961 H   0  0  0  0  0  0  0  0  0  0  0  0
   -0.6256    1.0059    3.6506 S   0  0  0  0  0  0  0  0  0  0  0  0
   -0.4870    2.6472    3.0939 C   0  0  0  0  0  0  0  0  0  0  0  0
   -1.3515    2.9626    2.6764 H   0  0  0  0  0  0  0  0  0  0  0  0
   -0.2656    3.2706    3.8573 H   0  0  0  0  0  0  0  0  0  0  0  0
    0.2423    2.7342    2.4000 H   0  0  0  0  0  0  0  0  0  0  0  0
  1  5  1  0
  5  8  1  0
  1  2  1  0
  1  3  1  0
  1  4  1  0
  5  6  1  0
  5  7  1  0
  8  9  1  0
  8 10  1  0
  8 11  1  0
 12 16  1  0
 16 17  1  0
 12 13  1  0
 12 14  1  0
 12 15  1  0
 17 18  1  0
 17 19  1  0
 17 20  1  0
M  CHG  1   8   1
M  END
>  <PDB_ID>  (1398) 
pdb4wwj

>  <RESIDUE_NAME>  (1398) 
LYS   MET

>  <FRAG_NAME>  (1398) 
ETAM   MSM

>  <FRAG_ATOM_NUM>  (1398) 
fragi: 11  fragj: 9

>  <atom.prop.CHAIN_ID>  (1398) 
A A A A A A A A A A A Z Z Z Z Z Z Z Z Z

>  <atom.prop.IS_HEAVY_ATOM>  (1398) 
1 0 0 0 1 0 0 1 0 0 0 1 0 0 0 1 1 0 0 0

>  <DIFUSE_FUNC_ATOM>  (1398) 
n/a

>  <FINAL_SINGLE_POINT_ENERGY>  (1398) 
0

>  <NONCOV_INTER_ENERGY_QM>  (1398) 
0

>  <FF_Energy>  (1398) 
-4.21

>  <QM_Energy>  (1398) 
-10.3

>  <source>  (1398) 
ETAM_MSM

>  <Index>  (1398) 
8787

$$$$
ETAM-pdb4wq4-B-LYS-314:MSM-pdb4wq4-B-MET-310
     RDKit          3D

 20 18  0  0  0  0  0  0  0  0999 V2000
    1.2340    0.8875    0.0000 C   0  0  0  0  0  0  0  0  0  0  0  0
    1.3662    1.2489    0.9090 H   0  0  0  0  0  0  0  0  0  0  0  0
    1.1078    1.6075   -0.6637 H   0  0  0  0  0  0  0  0  0  0  0  0
    2.1094    0.3002   -0.2771 H   0  0  0  0  0  0  0  0  0  0  0  0
    0.0000    0.0000    0.0000 C   0  0  0  0  0  0  0  0  0  0  0  0
    0.0274   -0.5861   -0.8158 H   0  0  0  0  0  0  0  0  0  0  0  0
    0.0271   -0.5867    0.8166 H   0  0  0  0  0  0  0  0  0  0  0  0
   -1.2340    0.7910    0.0000 N   0  0  0  0  0  4  0  0  0  0  0  0
   -1.4898    1.0264   -0.9416 H   0  0  0  0  0  0  0  0  0  0  0  0
   -1.9783    0.2646    0.4185 H   0  0  0  0  0  0  0  0  0  0  0  0
   -1.0991    1.6372    0.5224 H   0  0  0  0  0  0  0  0  0  0  0  0
   -0.3156   -0.3407    4.0048 C   0  0  0  0  0  0  0  0  0  0  0  0
   -1.2216    0.0644    4.2475 H   0  0  0  0  0  0  0  0  0  0  0  0
    0.1976    0.3904    3.5099 H   0  0  0  0  0  0  0  0  0  0  0  0
    0.2163   -0.5711    4.9280 H   0  0  0  0  0  0  0  0  0  0  0  0
   -0.4986   -1.7889    3.0122 S   0  0  0  0  0  0  0  0  0  0  0  0
   -1.8775   -2.6025    3.7821 C   0  0  0  0  0  0  0  0  0  0  0  0
   -2.0062   -3.5139    3.3807 H   0  0  0  0  0  0  0  0  0  0  0  0
   -1.7120   -2.7007    4.7668 H   0  0  0  0  0  0  0  0  0  0  0  0
   -2.7134   -2.0648    3.6442 H   0  0  0  0  0  0  0  0  0  0  0  0
  1  5  1  0
  5  8  1  0
  1  2  1  0
  1  3  1  0
  1  4  1  0
  5  6  1  0
  5  7  1  0
  8  9  1  0
  8 10  1  0
  8 11  1  0
 12 16  1  0
 16 17  1  0
 12 13  1  0
 12 14  1  0
 12 15  1  0
 17 18  1  0
 17 19  1  0
 17 20  1  0
M  CHG  1   8   1
M  END
>  <PDB_ID>  (1399) 
pdb4wq4

>  <RESIDUE_NAME>  (1399) 
LYS   MET

>  <FRAG_NAME>  (1399) 
ETAM   MSM

>  <FRAG_ATOM_NUM>  (1399) 
fragi: 11  fragj: 9

>  <atom.prop.CHAIN_ID>  (1399) 
A A A A A A A A A A A Z Z Z Z Z Z Z Z Z

>  <atom.prop.IS_HEAVY_ATOM>  (1399) 
1 0 0 0 1 0 0 1 0 0 0 1 0 0 0 1 1 0 0 0

>  <DIFUSE_FUNC_ATOM>  (1399) 
n/a

>  <FINAL_SINGLE_POINT_ENERGY>  (1399) 
0

>  <NONCOV_INTER_ENERGY_QM>  (1399) 
0

>  <FF_Energy>  (1399) 
-2.13

>  <QM_Energy>  (1399) 
-8.26

>  <source>  (1399) 
ETAM_MSM

>  <Index>  (1399) 
8789

$$$$
ETAM-pdb3vuq-A-LYS-56:MSM-pdb3vuq-A-MET-35
     RDKit          3D

 20 18  0  0  0  0  0  0  0  0999 V2000
    1.2445    0.8702    0.0000 C   0  0  0  0  0  0  0  0  0  0  0  0
    2.0435    0.2790    0.0345 H   0  0  0  0  0  0  0  0  0  0  0  0
    1.2169    1.4613    0.7993 H   0  0  0  0  0  0  0  0  0  0  0  0
    1.2957    1.4859   -0.8980 H   0  0  0  0  0  0  0  0  0  0  0  0
    0.0000    0.0000    0.0000 C   0  0  0  0  0  0  0  0  0  0  0  0
    0.0089   -0.5820   -0.8163 H   0  0  0  0  0  0  0  0  0  0  0  0
    0.0079   -0.5823    0.8165 H   0  0  0  0  0  0  0  0  0  0  0  0
   -1.2445    0.8213    0.0000 N   0  0  0  0  0  4  0  0  0  0  0  0
   -1.0018    1.7892    0.0507 H   0  0  0  0  0  0  0  0  0  0  0  0
   -1.7548    0.6469   -0.8406 H   0  0  0  0  0  0  0  0  0  0  0  0
   -1.8038    0.5735    0.7901 H   0  0  0  0  0  0  0  0  0  0  0  0
   -2.5589   -0.8284   -2.2552 C   0  0  0  0  0  0  0  0  0  0  0  0
   -2.2161   -0.9487   -1.2984 H   0  0  0  0  0  0  0  0  0  0  0  0
   -1.9080   -1.3466   -2.8517 H   0  0  0  0  0  0  0  0  0  0  0  0
   -3.5461   -1.2835   -2.3343 H   0  0  0  0  0  0  0  0  0  0  0  0
   -2.5637    0.9334   -2.7070 S   0  0  0  0  0  0  0  0  0  0  0  0
   -2.1688    0.8143   -4.4341 C   0  0  0  0  0  0  0  0  0  0  0  0
   -2.9680    0.4907   -4.9483 H   0  0  0  0  0  0  0  0  0  0  0  0
   -1.8977    1.7143   -4.7873 H   0  0  0  0  0  0  0  0  0  0  0  0
   -1.4114    0.1697   -4.5696 H   0  0  0  0  0  0  0  0  0  0  0  0
  1  5  1  0
  5  8  1  0
  1  2  1  0
  1  3  1  0
  1  4  1  0
  5  6  1  0
  5  7  1  0
  8  9  1  0
  8 10  1  0
  8 11  1  0
 12 16  1  0
 16 17  1  0
 12 13  1  0
 12 14  1  0
 12 15  1  0
 17 18  1  0
 17 19  1  0
 17 20  1  0
M  CHG  1   8   1
M  END
>  <PDB_ID>  (1400) 
pdb3vuq

>  <RESIDUE_NAME>  (1400) 
LYS   MET

>  <FRAG_NAME>  (1400) 
ETAM   MSM

>  <FRAG_ATOM_NUM>  (1400) 
fragi: 11  fragj: 9

>  <atom.prop.CHAIN_ID>  (1400) 
A A A A A A A A A A A Z Z Z Z Z Z Z Z Z

>  <atom.prop.IS_HEAVY_ATOM>  (1400) 
1 0 0 0 1 0 0 1 0 0 0 1 0 0 0 1 1 0 0 0

>  <DIFUSE_FUNC_ATOM>  (1400) 
n/a

>  <FINAL_SINGLE_POINT_ENERGY>  (1400) 
0

>  <NONCOV_INTER_ENERGY_QM>  (1400) 
0

>  <FF_Energy>  (1400) 
-0.02

>  <QM_Energy>  (1400) 
-7.99

>  <source>  (1400) 
ETAM_MSM

>  <Index>  (1400) 
8804

$$$$
ETAM-pdb3w3d-A-LYS-283:MSM-pdb3w3d-A-MET-175
     RDKit          3D

 20 18  0  0  0  0  0  0  0  0999 V2000
    1.2305    0.9148    0.0000 C   0  0  0  0  0  0  0  0  0  0  0  0
    1.2018    1.4743    0.8495 H   0  0  0  0  0  0  0  0  0  0  0  0
    1.1366    1.5610   -0.7798 H   0  0  0  0  0  0  0  0  0  0  0  0
    2.2071    0.4349   -0.0638 H   0  0  0  0  0  0  0  0  0  0  0  0
    0.0000    0.0000    0.0000 C   0  0  0  0  0  0  0  0  0  0  0  0
    0.0403   -0.5776   -0.8162 H   0  0  0  0  0  0  0  0  0  0  0  0
    0.0402   -0.5777    0.8162 H   0  0  0  0  0  0  0  0  0  0  0  0
   -1.2305    0.7874    0.0000 N   0  0  0  0  0  4  0  0  0  0  0  0
   -2.0298    0.1792    0.0173 H   0  0  0  0  0  0  0  0  0  0  0  0
   -1.2593    1.3833    0.8074 H   0  0  0  0  0  0  0  0  0  0  0  0
   -1.2751    1.3577   -0.8251 H   0  0  0  0  0  0  0  0  0  0  0  0
   -0.9201    1.6910    4.9758 C   0  0  0  0  0  0  0  0  0  0  0  0
   -0.2078    2.4303    4.8192 H   0  0  0  0  0  0  0  0  0  0  0  0
   -0.4339    1.0070    5.5879 H   0  0  0  0  0  0  0  0  0  0  0  0
   -1.7399    2.1298    5.5445 H   0  0  0  0  0  0  0  0  0  0  0  0
   -1.3867    0.9179    3.4075 S   0  0  0  0  0  0  0  0  0  0  0  0
   -2.1180   -0.6089    3.9579 C   0  0  0  0  0  0  0  0  0  0  0  0
   -1.4858   -1.0888    4.5710 H   0  0  0  0  0  0  0  0  0  0  0  0
   -2.9713   -0.4205    4.4501 H   0  0  0  0  0  0  0  0  0  0  0  0
   -2.3171   -1.1955    3.1690 H   0  0  0  0  0  0  0  0  0  0  0  0
  1  5  1  0
  5  8  1  0
  1  2  1  0
  1  3  1  0
  1  4  1  0
  5  6  1  0
  5  7  1  0
  8  9  1  0
  8 10  1  0
  8 11  1  0
 12 16  1  0
 16 17  1  0
 12 13  1  0
 12 14  1  0
 12 15  1  0
 17 18  1  0
 17 19  1  0
 17 20  1  0
M  CHG  1   8   1
M  END
>  <PDB_ID>  (1401) 
pdb3w3d

>  <RESIDUE_NAME>  (1401) 
LYS   MET

>  <FRAG_NAME>  (1401) 
ETAM   MSM

>  <FRAG_ATOM_NUM>  (1401) 
fragi: 11  fragj: 9

>  <atom.prop.CHAIN_ID>  (1401) 
A A A A A A A A A A A Z Z Z Z Z Z Z Z Z

>  <atom.prop.IS_HEAVY_ATOM>  (1401) 
1 0 0 0 1 0 0 1 0 0 0 1 0 0 0 1 1 0 0 0

>  <DIFUSE_FUNC_ATOM>  (1401) 
n/a

>  <FINAL_SINGLE_POINT_ENERGY>  (1401) 
0

>  <NONCOV_INTER_ENERGY_QM>  (1401) 
0

>  <FF_Energy>  (1401) 
-5.87

>  <QM_Energy>  (1401) 
-13.62

>  <source>  (1401) 
ETAM_MSM

>  <Index>  (1401) 
8845

$$$$
ETAM-pdb3w3w-A-LYS-273:MSM-pdb3w3w-A-MET-312
     RDKit          3D

 20 18  0  0  0  0  0  0  0  0999 V2000
    1.2478    0.8621   -0.0000 C   0  0  0  0  0  0  0  0  0  0  0  0
    1.0023    1.7754    0.2525 H   0  0  0  0  0  0  0  0  0  0  0  0
    1.6701    0.8080   -0.8811 H   0  0  0  0  0  0  0  0  0  0  0  0
    1.9250    0.4525    0.7495 H   0  0  0  0  0  0  0  0  0  0  0  0
    0.0000    0.0000    0.0000 C   0  0  0  0  0  0  0  0  0  0  0  0
    0.0157   -0.5939   -0.8163 H   0  0  0  0  0  0  0  0  0  0  0  0
    0.0153   -0.5939    0.8158 H   0  0  0  0  0  0  0  0  0  0  0  0
   -1.2478    0.7949   -0.0000 N   0  0  0  0  0  4  0  0  0  0  0  0
   -1.3791    1.2141   -0.8995 H   0  0  0  0  0  0  0  0  0  0  0  0
   -2.0257    0.1994    0.2044 H   0  0  0  0  0  0  0  0  0  0  0  0
   -1.1882    1.5135    0.6945 H   0  0  0  0  0  0  0  0  0  0  0  0
   -3.9657   -1.7370    1.8022 C   0  0  0  0  0  0  0  0  0  0  0  0
   -3.0654   -1.9590    2.2296 H   0  0  0  0  0  0  0  0  0  0  0  0
   -4.3516   -2.6227    1.4734 H   0  0  0  0  0  0  0  0  0  0  0  0
   -4.6261   -1.3269    2.5664 H   0  0  0  0  0  0  0  0  0  0  0  0
   -3.7303   -0.5899    0.3952 S   0  0  0  0  0  0  0  0  0  0  0  0
   -3.0929   -1.7184   -0.8650 C   0  0  0  0  0  0  0  0  0  0  0  0
   -3.5889   -2.5829   -0.8120 H   0  0  0  0  0  0  0  0  0  0  0  0
   -3.2228   -1.3097   -1.7665 H   0  0  0  0  0  0  0  0  0  0  0  0
   -2.1208   -1.8758   -0.7020 H   0  0  0  0  0  0  0  0  0  0  0  0
  1  5  1  0
  5  8  1  0
  1  2  1  0
  1  3  1  0
  1  4  1  0
  5  6  1  0
  5  7  1  0
  8  9  1  0
  8 10  1  0
  8 11  1  0
 12 16  1  0
 16 17  1  0
 12 13  1  0
 12 14  1  0
 12 15  1  0
 17 18  1  0
 17 19  1  0
 17 20  1  0
M  CHG  1   8   1
M  END
>  <PDB_ID>  (1402) 
pdb3w3w

>  <RESIDUE_NAME>  (1402) 
LYS   MET

>  <FRAG_NAME>  (1402) 
ETAM   MSM

>  <FRAG_ATOM_NUM>  (1402) 
fragi: 11  fragj: 9

>  <atom.prop.CHAIN_ID>  (1402) 
A A A A A A A A A A A Z Z Z Z Z Z Z Z Z

>  <atom.prop.IS_HEAVY_ATOM>  (1402) 
1 0 0 0 1 0 0 1 0 0 0 1 0 0 0 1 1 0 0 0

>  <DIFUSE_FUNC_ATOM>  (1402) 
n/a

>  <FINAL_SINGLE_POINT_ENERGY>  (1402) 
0

>  <NONCOV_INTER_ENERGY_QM>  (1402) 
0

>  <FF_Energy>  (1402) 
0.52

>  <QM_Energy>  (1402) 
-11.06

>  <source>  (1402) 
ETAM_MSM

>  <Index>  (1402) 
8848

$$$$
ETAM-pdb3w4r-A-LYS-162:MSM-pdb3w4r-A-MET-197
     RDKit          3D

 20 18  0  0  0  0  0  0  0  0999 V2000
    1.2691    0.8427   -0.0000 C   0  0  0  0  0  0  0  0  0  0  0  0
    1.3165    1.3551    0.8459 H   0  0  0  0  0  0  0  0  0  0  0  0
    1.2552    1.4464   -0.7845 H   0  0  0  0  0  0  0  0  0  0  0  0
    2.1568    0.2139   -0.0676 H   0  0  0  0  0  0  0  0  0  0  0  0
    0.0000    0.0000    0.0000 C   0  0  0  0  0  0  0  0  0  0  0  0
   -0.0288   -0.5678   -0.8162 H   0  0  0  0  0  0  0  0  0  0  0  0
   -0.0297   -0.5687    0.8162 H   0  0  0  0  0  0  0  0  0  0  0  0
   -1.2691    0.8891    0.0000 N   0  0  0  0  0  4  0  0  0  0  0  0
   -1.9152    0.4911    0.6358 H   0  0  0  0  0  0  0  0  0  0  0  0
   -0.9996    1.7977    0.2856 H   0  0  0  0  0  0  0  0  0  0  0  0
   -1.6311    0.8961   -0.9208 H   0  0  0  0  0  0  0  0  0  0  0  0
   -3.2138    4.1947    2.7434 C   0  0  0  0  0  0  0  0  0  0  0  0
   -3.9010    4.9388    2.9616 H   0  0  0  0  0  0  0  0  0  0  0  0
   -2.3126    4.7004    2.6714 H   0  0  0  0  0  0  0  0  0  0  0  0
   -3.1578    3.5251    3.6016 H   0  0  0  0  0  0  0  0  0  0  0  0
   -3.6206    3.3942    1.1766 S   0  0  0  0  0  0  0  0  0  0  0  0
   -3.1523    4.6895    0.0348 C   0  0  0  0  0  0  0  0  0  0  0  0
   -2.1727    4.8756    0.1201 H   0  0  0  0  0  0  0  0  0  0  0  0
   -3.3534    4.4013   -0.9034 H   0  0  0  0  0  0  0  0  0  0  0  0
   -3.6671    5.5232    0.2424 H   0  0  0  0  0  0  0  0  0  0  0  0
  1  5  1  0
  5  8  1  0
  1  2  1  0
  1  3  1  0
  1  4  1  0
  5  6  1  0
  5  7  1  0
  8  9  1  0
  8 10  1  0
  8 11  1  0
 12 16  1  0
 16 17  1  0
 12 13  1  0
 12 14  1  0
 12 15  1  0
 17 18  1  0
 17 19  1  0
 17 20  1  0
M  CHG  1   8   1
M  END
>  <PDB_ID>  (1403) 
pdb3w4r

>  <RESIDUE_NAME>  (1403) 
LYS   MET

>  <FRAG_NAME>  (1403) 
ETAM   MSM

>  <FRAG_ATOM_NUM>  (1403) 
fragi: 11  fragj: 9

>  <atom.prop.CHAIN_ID>  (1403) 
A A A A A A A A A A A Z Z Z Z Z Z Z Z Z

>  <atom.prop.IS_HEAVY_ATOM>  (1403) 
1 0 0 0 1 0 0 1 0 0 0 1 0 0 0 1 1 0 0 0

>  <DIFUSE_FUNC_ATOM>  (1403) 
n/a

>  <FINAL_SINGLE_POINT_ENERGY>  (1403) 
0

>  <NONCOV_INTER_ENERGY_QM>  (1403) 
0

>  <FF_Energy>  (1403) 
-4.29

>  <QM_Energy>  (1403) 
-10.62

>  <source>  (1403) 
ETAM_MSM

>  <Index>  (1403) 
8849

$$$$
ETAM-pdb4xaz-A-LYS-82:MSM-pdb4xaz-A-MET-314
     RDKit          3D

 20 18  0  0  0  0  0  0  0  0999 V2000
    1.2110    0.9420    0.0000 C   0  0  0  0  0  0  0  0  0  0  0  0
    1.2433    1.3853    0.8799 H   0  0  0  0  0  0  0  0  0  0  0  0
    1.0851    1.5890   -0.7329 H   0  0  0  0  0  0  0  0  0  0  0  0
    2.1074    0.3435   -0.1626 H   0  0  0  0  0  0  0  0  0  0  0  0
    0.0000    0.0000    0.0000 C   0  0  0  0  0  0  0  0  0  0  0  0
    0.0436   -0.5620   -0.8164 H   0  0  0  0  0  0  0  0  0  0  0  0
    0.0431   -0.5619    0.8163 H   0  0  0  0  0  0  0  0  0  0  0  0
   -1.2110    0.8083   -0.0000 N   0  0  0  0  0  4  0  0  0  0  0  0
   -1.8503    0.4769   -0.7007 H   0  0  0  0  0  0  0  0  0  0  0  0
   -1.6622    0.7586    0.8967 H   0  0  0  0  0  0  0  0  0  0  0  0
   -0.9886    1.7683   -0.1963 H   0  0  0  0  0  0  0  0  0  0  0  0
   -3.9497    2.3999   -0.5245 C   0  0  0  0  0  0  0  0  0  0  0  0
   -3.0754    2.8567   -0.1966 H   0  0  0  0  0  0  0  0  0  0  0  0
   -4.0635    1.5983    0.1263 H   0  0  0  0  0  0  0  0  0  0  0  0
   -4.7815    3.0900   -0.3833 H   0  0  0  0  0  0  0  0  0  0  0  0
   -3.6920    1.7545   -2.2477 S   0  0  0  0  0  0  0  0  0  0  0  0
   -4.8509    0.3446   -2.3702 C   0  0  0  0  0  0  0  0  0  0  0  0
   -5.7059    0.6700   -2.7609 H   0  0  0  0  0  0  0  0  0  0  0  0
   -4.4444   -0.3498   -2.9563 H   0  0  0  0  0  0  0  0  0  0  0  0
   -5.0045   -0.0197   -1.4574 H   0  0  0  0  0  0  0  0  0  0  0  0
  1  5  1  0
  5  8  1  0
  1  2  1  0
  1  3  1  0
  1  4  1  0
  5  6  1  0
  5  7  1  0
  8  9  1  0
  8 10  1  0
  8 11  1  0
 12 16  1  0
 16 17  1  0
 12 13  1  0
 12 14  1  0
 12 15  1  0
 17 18  1  0
 17 19  1  0
 17 20  1  0
M  CHG  1   8   1
M  END
>  <PDB_ID>  (1404) 
pdb4xaz

>  <RESIDUE_NAME>  (1404) 
LYS   MET

>  <FRAG_NAME>  (1404) 
ETAM   MSM

>  <FRAG_ATOM_NUM>  (1404) 
fragi: 11  fragj: 9

>  <atom.prop.CHAIN_ID>  (1404) 
A A A A A A A A A A A Z Z Z Z Z Z Z Z Z

>  <atom.prop.IS_HEAVY_ATOM>  (1404) 
1 0 0 0 1 0 0 1 0 0 0 1 0 0 0 1 1 0 0 0

>  <DIFUSE_FUNC_ATOM>  (1404) 
n/a

>  <FINAL_SINGLE_POINT_ENERGY>  (1404) 
0

>  <NONCOV_INTER_ENERGY_QM>  (1404) 
0

>  <FF_Energy>  (1404) 
-2.13

>  <QM_Energy>  (1404) 
-10.22

>  <source>  (1404) 
ETAM_MSM

>  <Index>  (1404) 
8864

$$$$
ETAM-pdb4xaz-G-LYS-82:MSM-pdb4xaz-G-MET-314
     RDKit          3D

 20 18  0  0  0  0  0  0  0  0999 V2000
    1.2461    0.8697    0.0000 C   0  0  0  0  0  0  0  0  0  0  0  0
    1.1557    1.5549    0.7054 H   0  0  0  0  0  0  0  0  0  0  0  0
    1.3482    1.2791   -0.8926 H   0  0  0  0  0  0  0  0  0  0  0  0
    2.1237    0.2589    0.2119 H   0  0  0  0  0  0  0  0  0  0  0  0
    0.0000    0.0000    0.0000 C   0  0  0  0  0  0  0  0  0  0  0  0
    0.0197   -0.5922   -0.8161 H   0  0  0  0  0  0  0  0  0  0  0  0
    0.0191   -0.5919    0.8164 H   0  0  0  0  0  0  0  0  0  0  0  0
   -1.2461    0.7920    0.0000 N   0  0  0  0  0  4  0  0  0  0  0  0
   -1.5869    0.8853   -0.9371 H   0  0  0  0  0  0  0  0  0  0  0  0
   -1.9384    0.3317    0.5587 H   0  0  0  0  0  0  0  0  0  0  0  0
   -1.0676    1.7015    0.3797 H   0  0  0  0  0  0  0  0  0  0  0  0
   -3.2521    1.5785   -2.2748 C   0  0  0  0  0  0  0  0  0  0  0  0
   -2.4138    2.1220   -1.9184 H   0  0  0  0  0  0  0  0  0  0  0  0
   -3.5735    1.1051   -1.3821 H   0  0  0  0  0  0  0  0  0  0  0  0
   -4.0156    2.3082   -2.5447 H   0  0  0  0  0  0  0  0  0  0  0  0
   -2.7474    0.3651   -3.4820 S   0  0  0  0  0  0  0  0  0  0  0  0
   -3.9911   -0.9544   -3.3302 C   0  0  0  0  0  0  0  0  0  0  0  0
   -4.2077   -1.2987   -4.2399 H   0  0  0  0  0  0  0  0  0  0  0  0
   -3.6168   -1.6865   -2.7673 H   0  0  0  0  0  0  0  0  0  0  0  0
   -4.8094   -0.5783   -2.9027 H   0  0  0  0  0  0  0  0  0  0  0  0
  1  5  1  0
  5  8  1  0
  1  2  1  0
  1  3  1  0
  1  4  1  0
  5  6  1  0
  5  7  1  0
  8  9  1  0
  8 10  1  0
  8 11  1  0
 12 16  1  0
 16 17  1  0
 12 13  1  0
 12 14  1  0
 12 15  1  0
 17 18  1  0
 17 19  1  0
 17 20  1  0
M  CHG  1   8   1
M  END
>  <PDB_ID>  (1405) 
pdb4xaz

>  <RESIDUE_NAME>  (1405) 
LYS   MET

>  <FRAG_NAME>  (1405) 
ETAM   MSM

>  <FRAG_ATOM_NUM>  (1405) 
fragi: 11  fragj: 9

>  <atom.prop.CHAIN_ID>  (1405) 
A A A A A A A A A A A Z Z Z Z Z Z Z Z Z

>  <atom.prop.IS_HEAVY_ATOM>  (1405) 
1 0 0 0 1 0 0 1 0 0 0 1 0 0 0 1 1 0 0 0

>  <DIFUSE_FUNC_ATOM>  (1405) 
n/a

>  <FINAL_SINGLE_POINT_ENERGY>  (1405) 
0

>  <NONCOV_INTER_ENERGY_QM>  (1405) 
0

>  <FF_Energy>  (1405) 
-0.01

>  <QM_Energy>  (1405) 
-5.48

>  <source>  (1405) 
ETAM_MSM

>  <Index>  (1405) 
8880

$$$$
ETAM-pdb4xef-A-LYS-988:MSM-pdb4xef-B-MET-1
     RDKit          3D

 20 18  0  0  0  0  0  0  0  0999 V2000
    1.2452    0.8816    0.0000 C   0  0  0  0  0  0  0  0  0  0  0  0
    2.0243    0.3267   -0.2603 H   0  0  0  0  0  0  0  0  0  0  0  0
    1.3655    1.2579    0.9090 H   0  0  0  0  0  0  0  0  0  0  0  0
    1.1400    1.7004   -0.7118 H   0  0  0  0  0  0  0  0  0  0  0  0
    0.0000    0.0000    0.0000 C   0  0  0  0  0  0  0  0  0  0  0  0
    0.0114   -0.5767   -0.8164 H   0  0  0  0  0  0  0  0  0  0  0  0
    0.0115   -0.5771    0.8163 H   0  0  0  0  0  0  0  0  0  0  0  0
   -1.2452    0.8255    0.0000 N   0  0  0  0  0  4  0  0  0  0  0  0
   -2.0336    0.2312    0.1517 H   0  0  0  0  0  0  0  0  0  0  0  0
   -1.1899    1.5040    0.7304 H   0  0  0  0  0  0  0  0  0  0  0  0
   -1.3349    1.2858   -0.8814 H   0  0  0  0  0  0  0  0  0  0  0  0
    0.7199   -2.7748    4.0337 C   0  0  0  0  0  0  0  0  0  0  0  0
    0.9266   -2.1356    4.8011 H   0  0  0  0  0  0  0  0  0  0  0  0
    1.6201   -3.1093    3.6893 H   0  0  0  0  0  0  0  0  0  0  0  0
    0.1579   -3.6224    4.4259 H   0  0  0  0  0  0  0  0  0  0  0  0
   -0.1886   -1.9284    2.7258 S   0  0  0  0  0  0  0  0  0  0  0  0
   -1.3073   -3.2322    2.1836 C   0  0  0  0  0  0  0  0  0  0  0  0
   -2.0388   -3.3419    2.8558 H   0  0  0  0  0  0  0  0  0  0  0  0
   -1.6999   -2.9843    1.2982 H   0  0  0  0  0  0  0  0  0  0  0  0
   -0.7999   -4.0890    2.0978 H   0  0  0  0  0  0  0  0  0  0  0  0
  1  5  1  0
  5  8  1  0
  1  2  1  0
  1  3  1  0
  1  4  1  0
  5  6  1  0
  5  7  1  0
  8  9  1  0
  8 10  1  0
  8 11  1  0
 12 16  1  0
 16 17  1  0
 12 13  1  0
 12 14  1  0
 12 15  1  0
 17 18  1  0
 17 19  1  0
 17 20  1  0
M  CHG  1   8   1
M  END
>  <PDB_ID>  (1406) 
pdb4xef

>  <RESIDUE_NAME>  (1406) 
LYS   MET

>  <FRAG_NAME>  (1406) 
ETAM   MSM

>  <FRAG_ATOM_NUM>  (1406) 
fragi: 11  fragj: 9

>  <atom.prop.CHAIN_ID>  (1406) 
A A A A A A A A A A A Z Z Z Z Z Z Z Z Z

>  <atom.prop.IS_HEAVY_ATOM>  (1406) 
1 0 0 0 1 0 0 1 0 0 0 1 0 0 0 1 1 0 0 0

>  <DIFUSE_FUNC_ATOM>  (1406) 
n/a

>  <FINAL_SINGLE_POINT_ENERGY>  (1406) 
0

>  <NONCOV_INTER_ENERGY_QM>  (1406) 
0

>  <FF_Energy>  (1406) 
2.18

>  <QM_Energy>  (1406) 
-7.47

>  <source>  (1406) 
ETAM_MSM

>  <Index>  (1406) 
8881

$$$$
ETAM-pdb3wca-A-LYS-84:MSM-pdb3wca-A-MET-77
     RDKit          3D

 20 18  0  0  0  0  0  0  0  0999 V2000
    1.2332    0.9005   -0.0000 C   0  0  0  0  0  0  0  0  0  0  0  0
    1.1775    1.5081    0.7918 H   0  0  0  0  0  0  0  0  0  0  0  0
    1.2249    1.4432   -0.8393 H   0  0  0  0  0  0  0  0  0  0  0  0
    2.1650    0.3371    0.0500 H   0  0  0  0  0  0  0  0  0  0  0  0
    0.0000    0.0000    0.0000 C   0  0  0  0  0  0  0  0  0  0  0  0
    0.0096   -0.5625   -0.8160 H   0  0  0  0  0  0  0  0  0  0  0  0
    0.0097   -0.5627    0.8166 H   0  0  0  0  0  0  0  0  0  0  0  0
   -1.2332    0.8489    0.0000 N   0  0  0  0  0  4  0  0  0  0  0  0
   -1.9595    0.3708    0.4896 H   0  0  0  0  0  0  0  0  0  0  0  0
   -1.0334    1.7159    0.4524 H   0  0  0  0  0  0  0  0  0  0  0  0
   -1.5145    1.0168   -0.9424 H   0  0  0  0  0  0  0  0  0  0  0  0
   -6.3191    0.9346   -0.1099 C   0  0  0  0  0  0  0  0  0  0  0  0
   -6.2430    0.5053   -1.0386 H   0  0  0  0  0  0  0  0  0  0  0  0
   -7.2520    1.3623   -0.0834 H   0  0  0  0  0  0  0  0  0  0  0  0
   -6.2799    0.1440    0.6393 H   0  0  0  0  0  0  0  0  0  0  0  0
   -5.0357    2.1930    0.1162 S   0  0  0  0  0  0  0  0  0  0  0  0
   -3.8655    1.6811   -1.0760 C   0  0  0  0  0  0  0  0  0  0  0  0
   -2.9416    2.0018   -0.8303 H   0  0  0  0  0  0  0  0  0  0  0  0
   -3.8414    0.6751   -1.1441 H   0  0  0  0  0  0  0  0  0  0  0  0
   -4.0958    2.0520   -1.9856 H   0  0  0  0  0  0  0  0  0  0  0  0
  1  5  1  0
  5  8  1  0
  1  2  1  0
  1  3  1  0
  1  4  1  0
  5  6  1  0
  5  7  1  0
  8  9  1  0
  8 10  1  0
  8 11  1  0
 12 16  1  0
 16 17  1  0
 12 13  1  0
 12 14  1  0
 12 15  1  0
 17 18  1  0
 17 19  1  0
 17 20  1  0
M  CHG  1   8   1
M  END
>  <PDB_ID>  (1407) 
pdb3wca

>  <RESIDUE_NAME>  (1407) 
LYS   MET

>  <FRAG_NAME>  (1407) 
ETAM   MSM

>  <FRAG_ATOM_NUM>  (1407) 
fragi: 11  fragj: 9

>  <atom.prop.CHAIN_ID>  (1407) 
A A A A A A A A A A A Z Z Z Z Z Z Z Z Z

>  <atom.prop.IS_HEAVY_ATOM>  (1407) 
1 0 0 0 1 0 0 1 0 0 0 1 0 0 0 1 1 0 0 0

>  <DIFUSE_FUNC_ATOM>  (1407) 
n/a

>  <FINAL_SINGLE_POINT_ENERGY>  (1407) 
0

>  <NONCOV_INTER_ENERGY_QM>  (1407) 
0

>  <FF_Energy>  (1407) 
6.27

>  <QM_Energy>  (1407) 
0.99

>  <source>  (1407) 
ETAM_MSM

>  <Index>  (1407) 
8896

$$$$
ETAM-pdb3wca-B-LYS-84:MSM-pdb3wca-B-MET-77
     RDKit          3D

 20 18  0  0  0  0  0  0  0  0999 V2000
    1.2491    0.8770    0.0000 C   0  0  0  0  0  0  0  0  0  0  0  0
    1.2080    1.4823    0.7889 H   0  0  0  0  0  0  0  0  0  0  0  0
    1.2608    1.4062   -0.8419 H   0  0  0  0  0  0  0  0  0  0  0  0
    2.1580    0.2781    0.0579 H   0  0  0  0  0  0  0  0  0  0  0  0
    0.0000    0.0000    0.0000 C   0  0  0  0  0  0  0  0  0  0  0  0
    0.0066   -0.5758   -0.8166 H   0  0  0  0  0  0  0  0  0  0  0  0
    0.0068   -0.5764    0.8162 H   0  0  0  0  0  0  0  0  0  0  0  0
   -1.2491    0.8328   -0.0000 N   0  0  0  0  0  4  0  0  0  0  0  0
   -1.8468    0.5211    0.7348 H   0  0  0  0  0  0  0  0  0  0  0  0
   -1.0031    1.7886    0.1441 H   0  0  0  0  0  0  0  0  0  0  0  0
   -1.7091    0.7296   -0.8787 H   0  0  0  0  0  0  0  0  0  0  0  0
   -6.3907    1.6449    0.6917 C   0  0  0  0  0  0  0  0  0  0  0  0
   -6.8979    1.2756   -0.1197 H   0  0  0  0  0  0  0  0  0  0  0  0
   -6.9844    2.3907    1.0703 H   0  0  0  0  0  0  0  0  0  0  0  0
   -6.3092    0.8540    1.4374 H   0  0  0  0  0  0  0  0  0  0  0  0
   -4.7757    2.3210    0.1765 S   0  0  0  0  0  0  0  0  0  0  0  0
   -4.3794    3.4349    1.5634 C   0  0  0  0  0  0  0  0  0  0  0  0
   -4.9582    4.2429    1.5002 H   0  0  0  0  0  0  0  0  0  0  0  0
   -4.5510    2.9547    2.4185 H   0  0  0  0  0  0  0  0  0  0  0  0
   -3.4196    3.6938    1.5014 H   0  0  0  0  0  0  0  0  0  0  0  0
  1  5  1  0
  5  8  1  0
  1  2  1  0
  1  3  1  0
  1  4  1  0
  5  6  1  0
  5  7  1  0
  8  9  1  0
  8 10  1  0
  8 11  1  0
 12 16  1  0
 16 17  1  0
 12 13  1  0
 12 14  1  0
 12 15  1  0
 17 18  1  0
 17 19  1  0
 17 20  1  0
M  CHG  1   8   1
M  END
>  <PDB_ID>  (1408) 
pdb3wca

>  <RESIDUE_NAME>  (1408) 
LYS   MET

>  <FRAG_NAME>  (1408) 
ETAM   MSM

>  <FRAG_ATOM_NUM>  (1408) 
fragi: 11  fragj: 9

>  <atom.prop.CHAIN_ID>  (1408) 
A A A A A A A A A A A Z Z Z Z Z Z Z Z Z

>  <atom.prop.IS_HEAVY_ATOM>  (1408) 
1 0 0 0 1 0 0 1 0 0 0 1 0 0 0 1 1 0 0 0

>  <DIFUSE_FUNC_ATOM>  (1408) 
n/a

>  <FINAL_SINGLE_POINT_ENERGY>  (1408) 
0

>  <NONCOV_INTER_ENERGY_QM>  (1408) 
0

>  <FF_Energy>  (1408) 
-3.89

>  <QM_Energy>  (1408) 
-9.36

>  <source>  (1408) 
ETAM_MSM

>  <Index>  (1408) 
8897

$$$$
ETAM-pdb4xgi-B-LYS-112:MSM-pdb4xgi-B-MET-109
     RDKit          3D

 20 18  0  0  0  0  0  0  0  0999 V2000
    1.2642    0.8744   -0.0000 C   0  0  0  0  0  0  0  0  0  0  0  0
    1.2291    1.4783    0.7809 H   0  0  0  0  0  0  0  0  0  0  0  0
    1.2987    1.3773   -0.8484 H   0  0  0  0  0  0  0  0  0  0  0  0
    2.1590    0.2566    0.0766 H   0  0  0  0  0  0  0  0  0  0  0  0
    0.0000    0.0000    0.0000 C   0  0  0  0  0  0  0  0  0  0  0  0
    0.0078   -0.5794   -0.8157 H   0  0  0  0  0  0  0  0  0  0  0  0
    0.0079   -0.5796    0.8165 H   0  0  0  0  0  0  0  0  0  0  0  0
   -1.2642    0.8256   -0.0000 N   0  0  0  0  0  4  0  0  0  0  0  0
   -1.7675    0.6416   -0.8397 H   0  0  0  0  0  0  0  0  0  0  0  0
   -1.8135    0.5718    0.7918 H   0  0  0  0  0  0  0  0  0  0  0  0
   -1.0178    1.7897    0.0482 H   0  0  0  0  0  0  0  0  0  0  0  0
   -0.1597   -0.3031    4.7336 C   0  0  0  0  0  0  0  0  0  0  0  0
   -1.0114   -0.8623    4.6326 H   0  0  0  0  0  0  0  0  0  0  0  0
   -0.2200    0.1308    5.6598 H   0  0  0  0  0  0  0  0  0  0  0  0
    0.7022   -0.9699    4.7128 H   0  0  0  0  0  0  0  0  0  0  0  0
   -0.0814    0.9684    3.4437 S   0  0  0  0  0  0  0  0  0  0  0  0
    1.4668    1.7645    3.7844 C   0  0  0  0  0  0  0  0  0  0  0  0
    2.0848    1.1284    4.2556 H   0  0  0  0  0  0  0  0  0  0  0  0
    1.8977    2.0608    2.9268 H   0  0  0  0  0  0  0  0  0  0  0  0
    1.3198    2.5676    4.3684 H   0  0  0  0  0  0  0  0  0  0  0  0
  1  5  1  0
  5  8  1  0
  1  2  1  0
  1  3  1  0
  1  4  1  0
  5  6  1  0
  5  7  1  0
  8  9  1  0
  8 10  1  0
  8 11  1  0
 12 16  1  0
 16 17  1  0
 12 13  1  0
 12 14  1  0
 12 15  1  0
 17 18  1  0
 17 19  1  0
 17 20  1  0
M  CHG  1   8   1
M  END
>  <PDB_ID>  (1409) 
pdb4xgi

>  <RESIDUE_NAME>  (1409) 
LYS   MET

>  <FRAG_NAME>  (1409) 
ETAM   MSM

>  <FRAG_ATOM_NUM>  (1409) 
fragi: 11  fragj: 9

>  <atom.prop.CHAIN_ID>  (1409) 
A A A A A A A A A A A Z Z Z Z Z Z Z Z Z

>  <atom.prop.IS_HEAVY_ATOM>  (1409) 
1 0 0 0 1 0 0 1 0 0 0 1 0 0 0 1 1 0 0 0

>  <DIFUSE_FUNC_ATOM>  (1409) 
n/a

>  <FINAL_SINGLE_POINT_ENERGY>  (1409) 
0

>  <NONCOV_INTER_ENERGY_QM>  (1409) 
0

>  <FF_Energy>  (1409) 
-5.37

>  <QM_Energy>  (1409) 
-12.15

>  <source>  (1409) 
ETAM_MSM

>  <Index>  (1409) 
8921

$$$$
ETAM-pdb4xmq-B-LYS-106:MSM-pdb4xmq-B-MET-137
     RDKit          3D

 20 18  0  0  0  0  0  0  0  0999 V2000
    1.2392    0.8868   -0.0000 C   0  0  0  0  0  0  0  0  0  0  0  0
    1.2545    1.4079    0.8423 H   0  0  0  0  0  0  0  0  0  0  0  0
    1.1987    1.4858   -0.7875 H   0  0  0  0  0  0  0  0  0  0  0  0
    2.1438    0.2816   -0.0590 H   0  0  0  0  0  0  0  0  0  0  0  0
    0.0000    0.0000    0.0000 C   0  0  0  0  0  0  0  0  0  0  0  0
    0.0128   -0.5742   -0.8157 H   0  0  0  0  0  0  0  0  0  0  0  0
    0.0128   -0.5743    0.8163 H   0  0  0  0  0  0  0  0  0  0  0  0
   -1.2392    0.8281   -0.0000 N   0  0  0  0  0  4  0  0  0  0  0  0
   -1.2897    1.3476   -0.8518 H   0  0  0  0  0  0  0  0  0  0  0  0
   -2.0365    0.2303    0.0766 H   0  0  0  0  0  0  0  0  0  0  0  0
   -1.2161    1.4578    0.7764 H   0  0  0  0  0  0  0  0  0  0  0  0
   -1.2925    5.4927    1.2740 C   0  0  0  0  0  0  0  0  0  0  0  0
   -2.3188    5.4534    1.1529 H   0  0  0  0  0  0  0  0  0  0  0  0
   -1.0466    6.4681    1.0300 H   0  0  0  0  0  0  0  0  0  0  0  0
   -1.0723    5.3437    2.3310 H   0  0  0  0  0  0  0  0  0  0  0  0
   -0.4742    4.3303    0.1570 S   0  0  0  0  0  0  0  0  0  0  0  0
    1.1861    5.0193    0.0831 C   0  0  0  0  0  0  0  0  0  0  0  0
    1.5093    5.0046   -0.8624 H   0  0  0  0  0  0  0  0  0  0  0  0
    1.1692    5.9613    0.4169 H   0  0  0  0  0  0  0  0  0  0  0  0
    1.7985    4.4729    0.6546 H   0  0  0  0  0  0  0  0  0  0  0  0
  1  5  1  0
  5  8  1  0
  1  2  1  0
  1  3  1  0
  1  4  1  0
  5  6  1  0
  5  7  1  0
  8  9  1  0
  8 10  1  0
  8 11  1  0
 12 16  1  0
 16 17  1  0
 12 13  1  0
 12 14  1  0
 12 15  1  0
 17 18  1  0
 17 19  1  0
 17 20  1  0
M  CHG  1   8   1
M  END
>  <PDB_ID>  (1410) 
pdb4xmq

>  <RESIDUE_NAME>  (1410) 
LYS   MET

>  <FRAG_NAME>  (1410) 
ETAM   MSM

>  <FRAG_ATOM_NUM>  (1410) 
fragi: 11  fragj: 9

>  <atom.prop.CHAIN_ID>  (1410) 
A A A A A A A A A A A Z Z Z Z Z Z Z Z Z

>  <atom.prop.IS_HEAVY_ATOM>  (1410) 
1 0 0 0 1 0 0 1 0 0 0 1 0 0 0 1 1 0 0 0

>  <DIFUSE_FUNC_ATOM>  (1410) 
n/a

>  <FINAL_SINGLE_POINT_ENERGY>  (1410) 
0

>  <NONCOV_INTER_ENERGY_QM>  (1410) 
0

>  <FF_Energy>  (1410) 
-5.78

>  <QM_Energy>  (1410) 
-12.99

>  <source>  (1410) 
ETAM_MSM

>  <Index>  (1410) 
8926

$$$$
ETAM-pdb4xgi-C-LYS-112:MSM-pdb4xgi-C-MET-109
     RDKit          3D

 20 18  0  0  0  0  0  0  0  0999 V2000
    1.2596    0.8587    0.0000 C   0  0  0  0  0  0  0  0  0  0  0  0
    1.2733    1.4091    0.8233 H   0  0  0  0  0  0  0  0  0  0  0  0
    1.2602    1.4277   -0.8101 H   0  0  0  0  0  0  0  0  0  0  0  0
    2.1570    0.2402   -0.0138 H   0  0  0  0  0  0  0  0  0  0  0  0
    0.0000    0.0000    0.0000 C   0  0  0  0  0  0  0  0  0  0  0  0
    0.0128   -0.5930   -0.8159 H   0  0  0  0  0  0  0  0  0  0  0  0
    0.0121   -0.5935    0.8158 H   0  0  0  0  0  0  0  0  0  0  0  0
   -1.2596    0.7995   -0.0000 N   0  0  0  0  0  4  0  0  0  0  0  0
   -1.9830    0.2754   -0.4473 H   0  0  0  0  0  0  0  0  0  0  0  0
   -1.5235    0.9997    0.9425 H   0  0  0  0  0  0  0  0  0  0  0  0
   -1.1079    1.6533   -0.4950 H   0  0  0  0  0  0  0  0  0  0  0  0
   -0.1390   -0.8108    4.6726 C   0  0  0  0  0  0  0  0  0  0  0  0
   -0.9979   -1.3447    4.5018 H   0  0  0  0  0  0  0  0  0  0  0  0
   -0.2108   -0.4756    5.6385 H   0  0  0  0  0  0  0  0  0  0  0  0
    0.7043   -1.4990    4.6140 H   0  0  0  0  0  0  0  0  0  0  0  0
   -0.0093    0.5849    3.5169 S   0  0  0  0  0  0  0  0  0  0  0  0
    1.5605    1.3071    3.9945 C   0  0  0  0  0  0  0  0  0  0  0  0
    1.8175    2.0156    3.3364 H   0  0  0  0  0  0  0  0  0  0  0  0
    1.4795    1.7134    4.9051 H   0  0  0  0  0  0  0  0  0  0  0  0
    2.2657    0.5965    4.0094 H   0  0  0  0  0  0  0  0  0  0  0  0
  1  5  1  0
  5  8  1  0
  1  2  1  0
  1  3  1  0
  1  4  1  0
  5  6  1  0
  5  7  1  0
  8  9  1  0
  8 10  1  0
  8 11  1  0
 12 16  1  0
 16 17  1  0
 12 13  1  0
 12 14  1  0
 12 15  1  0
 17 18  1  0
 17 19  1  0
 17 20  1  0
M  CHG  1   8   1
M  END
>  <PDB_ID>  (1411) 
pdb4xgi

>  <RESIDUE_NAME>  (1411) 
LYS   MET

>  <FRAG_NAME>  (1411) 
ETAM   MSM

>  <FRAG_ATOM_NUM>  (1411) 
fragi: 11  fragj: 9

>  <atom.prop.CHAIN_ID>  (1411) 
A A A A A A A A A A A Z Z Z Z Z Z Z Z Z

>  <atom.prop.IS_HEAVY_ATOM>  (1411) 
1 0 0 0 1 0 0 1 0 0 0 1 0 0 0 1 1 0 0 0

>  <DIFUSE_FUNC_ATOM>  (1411) 
n/a

>  <FINAL_SINGLE_POINT_ENERGY>  (1411) 
0

>  <NONCOV_INTER_ENERGY_QM>  (1411) 
0

>  <FF_Energy>  (1411) 
-5.45

>  <QM_Energy>  (1411) 
-12.55

>  <source>  (1411) 
ETAM_MSM

>  <Index>  (1411) 
8944

$$$$
ETAM-pdb4xiy-B-LYS-319:MSM-pdb4xiy-A-MET-1
     RDKit          3D

 20 18  0  0  0  0  0  0  0  0999 V2000
    1.2447    0.9039    0.0000 C   0  0  0  0  0  0  0  0  0  0  0  0
    1.2021    1.4947   -0.8079 H   0  0  0  0  0  0  0  0  0  0  0  0
    2.0553    0.3189   -0.0624 H   0  0  0  0  0  0  0  0  0  0  0  0
    1.3363    1.5328    0.8856 H   0  0  0  0  0  0  0  0  0  0  0  0
    0.0000    0.0000    0.0000 C   0  0  0  0  0  0  0  0  0  0  0  0
    0.0255   -0.5734   -0.8167 H   0  0  0  0  0  0  0  0  0  0  0  0
    0.0255   -0.5736    0.8164 H   0  0  0  0  0  0  0  0  0  0  0  0
   -1.2447    0.8122    0.0000 N   0  0  0  0  0  4  0  0  0  0  0  0
   -1.7586    0.6338   -0.8389 H   0  0  0  0  0  0  0  0  0  0  0  0
   -1.8033    0.5660    0.7927 H   0  0  0  0  0  0  0  0  0  0  0  0
   -1.0085    1.7827    0.0465 H   0  0  0  0  0  0  0  0  0  0  0  0
   -4.2926    3.0824   -3.2424 C   0  0  0  0  0  0  0  0  0  0  0  0
   -4.0242    3.8625   -3.8803 H   0  0  0  0  0  0  0  0  0  0  0  0
   -5.1176    3.4686   -2.7336 H   0  0  0  0  0  0  0  0  0  0  0  0
   -4.6456    2.2587   -3.8629 H   0  0  0  0  0  0  0  0  0  0  0  0
   -2.9248    2.7352   -2.0574 S   0  0  0  0  0  0  0  0  0  0  0  0
   -2.2998    4.3454   -1.5929 C   0  0  0  0  0  0  0  0  0  0  0  0
   -2.2224    4.9245   -2.4068 H   0  0  0  0  0  0  0  0  0  0  0  0
   -2.9268    4.7750   -0.9402 H   0  0  0  0  0  0  0  0  0  0  0  0
   -1.3976    4.2476   -1.1699 H   0  0  0  0  0  0  0  0  0  0  0  0
  1  5  1  0
  5  8  1  0
  1  2  1  0
  1  3  1  0
  1  4  1  0
  5  6  1  0
  5  7  1  0
  8  9  1  0
  8 10  1  0
  8 11  1  0
 12 16  1  0
 16 17  1  0
 12 13  1  0
 12 14  1  0
 12 15  1  0
 17 18  1  0
 17 19  1  0
 17 20  1  0
M  CHG  1   8   1
M  END
>  <PDB_ID>  (1412) 
pdb4xiy

>  <RESIDUE_NAME>  (1412) 
LYS   MET

>  <FRAG_NAME>  (1412) 
ETAM   MSM

>  <FRAG_ATOM_NUM>  (1412) 
fragi: 11  fragj: 9

>  <atom.prop.CHAIN_ID>  (1412) 
A A A A A A A A A A A Z Z Z Z Z Z Z Z Z

>  <atom.prop.IS_HEAVY_ATOM>  (1412) 
1 0 0 0 1 0 0 1 0 0 0 1 0 0 0 1 1 0 0 0

>  <DIFUSE_FUNC_ATOM>  (1412) 
n/a

>  <FINAL_SINGLE_POINT_ENERGY>  (1412) 
0

>  <NONCOV_INTER_ENERGY_QM>  (1412) 
0

>  <FF_Energy>  (1412) 
-5.24

>  <QM_Energy>  (1412) 
-12.26

>  <source>  (1412) 
ETAM_MSM

>  <Index>  (1412) 
8948

$$$$
ETAM-pdb3wid-A-LYS-261:MSM-pdb3wid-A-MET-242
     RDKit          3D

 20 18  0  0  0  0  0  0  0  0999 V2000
    1.2061    0.9039    0.0000 C   0  0  0  0  0  0  0  0  0  0  0  0
    2.0161    0.3720    0.2845 H   0  0  0  0  0  0  0  0  0  0  0  0
    1.0640    1.6406    0.6758 H   0  0  0  0  0  0  0  0  0  0  0  0
    1.4362    1.3712   -0.9575 H   0  0  0  0  0  0  0  0  0  0  0  0
    0.0000    0.0000    0.0000 C   0  0  0  0  0  0  0  0  0  0  0  0
    0.0177   -0.5661   -0.8164 H   0  0  0  0  0  0  0  0  0  0  0  0
    0.0171   -0.5660    0.8163 H   0  0  0  0  0  0  0  0  0  0  0  0
   -1.2061    0.8351   -0.0000 N   0  0  0  0  0  4  0  0  0  0  0  0
   -1.1258    1.5522    0.6973 H   0  0  0  0  0  0  0  0  0  0  0  0
   -1.3242    1.2653   -0.8987 H   0  0  0  0  0  0  0  0  0  0  0  0
   -2.0117    0.2729    0.2013 H   0  0  0  0  0  0  0  0  0  0  0  0
   -3.5032    4.2068   -1.4261 C   0  0  0  0  0  0  0  0  0  0  0  0
   -3.2024    3.6176   -2.1695 H   0  0  0  0  0  0  0  0  0  0  0  0
   -3.5133    5.1569   -1.7216 H   0  0  0  0  0  0  0  0  0  0  0  0
   -4.4932    3.9063   -1.0831 H   0  0  0  0  0  0  0  0  0  0  0  0
   -2.4308    4.0065    0.0082 S   0  0  0  0  0  0  0  0  0  0  0  0
   -0.8440    4.2003   -0.8251 C   0  0  0  0  0  0  0  0  0  0  0  0
   -0.9872    4.1901   -1.8143 H   0  0  0  0  0  0  0  0  0  0  0  0
   -0.4326    5.0697   -0.5542 H   0  0  0  0  0  0  0  0  0  0  0  0
   -0.2400    3.4473   -0.5650 H   0  0  0  0  0  0  0  0  0  0  0  0
  1  5  1  0
  5  8  1  0
  1  2  1  0
  1  3  1  0
  1  4  1  0
  5  6  1  0
  5  7  1  0
  8  9  1  0
  8 10  1  0
  8 11  1  0
 12 16  1  0
 16 17  1  0
 12 13  1  0
 12 14  1  0
 12 15  1  0
 17 18  1  0
 17 19  1  0
 17 20  1  0
M  CHG  1   8   1
M  END
>  <PDB_ID>  (1413) 
pdb3wid

>  <RESIDUE_NAME>  (1413) 
LYS   MET

>  <FRAG_NAME>  (1413) 
ETAM   MSM

>  <FRAG_ATOM_NUM>  (1413) 
fragi: 11  fragj: 9

>  <atom.prop.CHAIN_ID>  (1413) 
A A A A A A A A A A A Z Z Z Z Z Z Z Z Z

>  <atom.prop.IS_HEAVY_ATOM>  (1413) 
1 0 0 0 1 0 0 1 0 0 0 1 0 0 0 1 1 0 0 0

>  <DIFUSE_FUNC_ATOM>  (1413) 
n/a

>  <FINAL_SINGLE_POINT_ENERGY>  (1413) 
0

>  <NONCOV_INTER_ENERGY_QM>  (1413) 
0

>  <FF_Energy>  (1413) 
-3.66

>  <QM_Energy>  (1413) 
-10.12

>  <source>  (1413) 
ETAM_MSM

>  <Index>  (1413) 
8956

$$$$
ETAM-pdb3wmt-A-LYS-426:MSM-pdb3wmt-A-MET-415
     RDKit          3D

 20 18  0  0  0  0  0  0  0  0999 V2000
    1.2570    0.8131    0.0000 C   0  0  0  0  0  0  0  0  0  0  0  0
    1.2633    1.4050    0.8022 H   0  0  0  0  0  0  0  0  0  0  0  0
    1.2907    1.3617   -0.8312 H   0  0  0  0  0  0  0  0  0  0  0  0
    2.1386    0.1730    0.0324 H   0  0  0  0  0  0  0  0  0  0  0  0
    0.0000    0.0000    0.0000 C   0  0  0  0  0  0  0  0  0  0  0  0
   -0.0331   -0.5843   -0.8160 H   0  0  0  0  0  0  0  0  0  0  0  0
   -0.0333   -0.5849    0.8168 H   0  0  0  0  0  0  0  0  0  0  0  0
   -1.2570    0.8699   -0.0000 N   0  0  0  0  0  4  0  0  0  0  0  0
   -0.9923    1.8000    0.2254 H   0  0  0  0  0  0  0  0  0  0  0  0
   -1.6621    0.8317   -0.9057 H   0  0  0  0  0  0  0  0  0  0  0  0
   -1.8848    0.5095    0.6804 H   0  0  0  0  0  0  0  0  0  0  0  0
   -4.6905   -1.9940    3.0410 C   0  0  0  0  0  0  0  0  0  0  0  0
   -4.6017   -3.0224    3.1022 H   0  0  0  0  0  0  0  0  0  0  0  0
   -5.4162   -1.8420    2.3206 H   0  0  0  0  0  0  0  0  0  0  0  0
   -5.0894   -1.6404    3.9917 H   0  0  0  0  0  0  0  0  0  0  0  0
   -3.1336   -1.2385    2.5590 S   0  0  0  0  0  0  0  0  0  0  0  0
   -1.9893   -2.4616    3.1683 C   0  0  0  0  0  0  0  0  0  0  0  0
   -1.1493   -2.4438    2.6212 H   0  0  0  0  0  0  0  0  0  0  0  0
   -1.7621   -2.2685    4.1251 H   0  0  0  0  0  0  0  0  0  0  0  0
   -2.4016   -3.3741    3.1068 H   0  0  0  0  0  0  0  0  0  0  0  0
  1  5  1  0
  5  8  1  0
  1  2  1  0
  1  3  1  0
  1  4  1  0
  5  6  1  0
  5  7  1  0
  8  9  1  0
  8 10  1  0
  8 11  1  0
 12 16  1  0
 16 17  1  0
 12 13  1  0
 12 14  1  0
 12 15  1  0
 17 18  1  0
 17 19  1  0
 17 20  1  0
M  CHG  1   8   1
M  END
>  <PDB_ID>  (1414) 
pdb3wmt

>  <RESIDUE_NAME>  (1414) 
LYS   MET

>  <FRAG_NAME>  (1414) 
ETAM   MSM

>  <FRAG_ATOM_NUM>  (1414) 
fragi: 11  fragj: 9

>  <atom.prop.CHAIN_ID>  (1414) 
A A A A A A A A A A A Z Z Z Z Z Z Z Z Z

>  <atom.prop.IS_HEAVY_ATOM>  (1414) 
1 0 0 0 1 0 0 1 0 0 0 1 0 0 0 1 1 0 0 0

>  <DIFUSE_FUNC_ATOM>  (1414) 
n/a

>  <FINAL_SINGLE_POINT_ENERGY>  (1414) 
0

>  <NONCOV_INTER_ENERGY_QM>  (1414) 
0

>  <FF_Energy>  (1414) 
-5.05

>  <QM_Energy>  (1414) 
-11.14

>  <source>  (1414) 
ETAM_MSM

>  <Index>  (1414) 
8958

$$$$
ETAM-pdb3wmt-B-LYS-426:MSM-pdb3wmt-B-MET-415
     RDKit          3D

 20 18  0  0  0  0  0  0  0  0999 V2000
    1.2334    0.8744   -0.0000 C   0  0  0  0  0  0  0  0  0  0  0  0
    1.1841    1.4968    0.7770 H   0  0  0  0  0  0  0  0  0  0  0  0
    1.2590    1.3919   -0.8516 H   0  0  0  0  0  0  0  0  0  0  0  0
    2.1452    0.2826    0.0804 H   0  0  0  0  0  0  0  0  0  0  0  0
    0.0000    0.0000    0.0000 C   0  0  0  0  0  0  0  0  0  0  0  0
    0.0085   -0.5799   -0.8162 H   0  0  0  0  0  0  0  0  0  0  0  0
    0.0089   -0.5798    0.8169 H   0  0  0  0  0  0  0  0  0  0  0  0
   -1.2334    0.8249   -0.0000 N   0  0  0  0  0  4  0  0  0  0  0  0
   -1.9612    0.3374    0.4825 H   0  0  0  0  0  0  0  0  0  0  0  0
   -1.0538    1.6946    0.4603 H   0  0  0  0  0  0  0  0  0  0  0  0
   -1.5179    0.9996   -0.9429 H   0  0  0  0  0  0  0  0  0  0  0  0
   -4.6718   -2.0555    3.1448 C   0  0  0  0  0  0  0  0  0  0  0  0
   -4.5481   -3.0870    3.1942 H   0  0  0  0  0  0  0  0  0  0  0  0
   -5.3969   -1.9346    2.4092 H   0  0  0  0  0  0  0  0  0  0  0  0
   -5.0895   -1.7181    4.0934 H   0  0  0  0  0  0  0  0  0  0  0  0
   -3.1092   -1.2614    2.6203 S   0  0  0  0  0  0  0  0  0  0  0  0
   -1.9463   -2.3950    3.3224 C   0  0  0  0  0  0  0  0  0  0  0  0
   -1.5081   -1.9864    4.1290 H   0  0  0  0  0  0  0  0  0  0  0  0
   -2.4118   -3.2405    3.6018 H   0  0  0  0  0  0  0  0  0  0  0  0
   -1.2360   -2.6240    2.6503 H   0  0  0  0  0  0  0  0  0  0  0  0
  1  5  1  0
  5  8  1  0
  1  2  1  0
  1  3  1  0
  1  4  1  0
  5  6  1  0
  5  7  1  0
  8  9  1  0
  8 10  1  0
  8 11  1  0
 12 16  1  0
 16 17  1  0
 12 13  1  0
 12 14  1  0
 12 15  1  0
 17 18  1  0
 17 19  1  0
 17 20  1  0
M  CHG  1   8   1
M  END
>  <PDB_ID>  (1415) 
pdb3wmt

>  <RESIDUE_NAME>  (1415) 
LYS   MET

>  <FRAG_NAME>  (1415) 
ETAM   MSM

>  <FRAG_ATOM_NUM>  (1415) 
fragi: 11  fragj: 9

>  <atom.prop.CHAIN_ID>  (1415) 
A A A A A A A A A A A Z Z Z Z Z Z Z Z Z

>  <atom.prop.IS_HEAVY_ATOM>  (1415) 
1 0 0 0 1 0 0 1 0 0 0 1 0 0 0 1 1 0 0 0

>  <DIFUSE_FUNC_ATOM>  (1415) 
n/a

>  <FINAL_SINGLE_POINT_ENERGY>  (1415) 
0

>  <NONCOV_INTER_ENERGY_QM>  (1415) 
0

>  <FF_Energy>  (1415) 
-5.0

>  <QM_Energy>  (1415) 
-10.98

>  <source>  (1415) 
ETAM_MSM

>  <Index>  (1415) 
8959

$$$$
ETAM-pdb3woo-A-LYS-592:MSM-pdb3woo-A-MET-595
     RDKit          3D

 20 18  0  0  0  0  0  0  0  0999 V2000
    1.2315    0.8722    0.0000 C   0  0  0  0  0  0  0  0  0  0  0  0
    1.0870    1.6300   -0.6399 H   0  0  0  0  0  0  0  0  0  0  0  0
    2.0116    0.3245   -0.3091 H   0  0  0  0  0  0  0  0  0  0  0  0
    1.4564    1.2815    0.9850 H   0  0  0  0  0  0  0  0  0  0  0  0
    0.0000    0.0000    0.0000 C   0  0  0  0  0  0  0  0  0  0  0  0
    0.0139   -0.5847   -0.8162 H   0  0  0  0  0  0  0  0  0  0  0  0
    0.0135   -0.5847    0.8163 H   0  0  0  0  0  0  0  0  0  0  0  0
   -1.2315    0.8112    0.0000 N   0  0  0  0  0  4  0  0  0  0  0  0
   -2.0093    0.2458   -0.2826 H   0  0  0  0  0  0  0  0  0  0  0  0
   -1.4018    1.1688    0.9202 H   0  0  0  0  0  0  0  0  0  0  0  0
   -1.1318    1.5778   -0.6377 H   0  0  0  0  0  0  0  0  0  0  0  0
   -0.5921    0.8676    4.1453 C   0  0  0  0  0  0  0  0  0  0  0  0
   -0.4724    1.5345    3.4168 H   0  0  0  0  0  0  0  0  0  0  0  0
    0.2906    0.6136    4.5273 H   0  0  0  0  0  0  0  0  0  0  0  0
   -1.2603    1.2474    4.9182 H   0  0  0  0  0  0  0  0  0  0  0  0
   -1.4049   -0.6530    3.4434 S   0  0  0  0  0  0  0  0  0  0  0  0
   -1.1808   -1.8537    4.7544 C   0  0  0  0  0  0  0  0  0  0  0  0
   -1.8256   -1.6649    5.4958 H   0  0  0  0  0  0  0  0  0  0  0  0
   -1.3458   -2.7743    4.3973 H   0  0  0  0  0  0  0  0  0  0  0  0
   -0.2456   -1.7960    5.1055 H   0  0  0  0  0  0  0  0  0  0  0  0
  1  5  1  0
  5  8  1  0
  1  2  1  0
  1  3  1  0
  1  4  1  0
  5  6  1  0
  5  7  1  0
  8  9  1  0
  8 10  1  0
  8 11  1  0
 12 16  1  0
 16 17  1  0
 12 13  1  0
 12 14  1  0
 12 15  1  0
 17 18  1  0
 17 19  1  0
 17 20  1  0
M  CHG  1   8   1
M  END
>  <PDB_ID>  (1416) 
pdb3woo

>  <RESIDUE_NAME>  (1416) 
LYS   MET

>  <FRAG_NAME>  (1416) 
ETAM   MSM

>  <FRAG_ATOM_NUM>  (1416) 
fragi: 11  fragj: 9

>  <atom.prop.CHAIN_ID>  (1416) 
A A A A A A A A A A A Z Z Z Z Z Z Z Z Z

>  <atom.prop.IS_HEAVY_ATOM>  (1416) 
1 0 0 0 1 0 0 1 0 0 0 1 0 0 0 1 1 0 0 0

>  <DIFUSE_FUNC_ATOM>  (1416) 
n/a

>  <FINAL_SINGLE_POINT_ENERGY>  (1416) 
0

>  <NONCOV_INTER_ENERGY_QM>  (1416) 
0

>  <FF_Energy>  (1416) 
-4.74

>  <QM_Energy>  (1416) 
-9.99

>  <source>  (1416) 
ETAM_MSM

>  <Index>  (1416) 
8965

$$$$
ETAM-pdb4xsg-B-LYS-213:MSM-pdb4xsg-B-MET-158
     RDKit          3D

 20 18  0  0  0  0  0  0  0  0999 V2000
    1.2376    0.8750    0.0000 C   0  0  0  0  0  0  0  0  0  0  0  0
    1.3571    1.2531    0.9084 H   0  0  0  0  0  0  0  0  0  0  0  0
    1.1151    1.5949   -0.6697 H   0  0  0  0  0  0  0  0  0  0  0  0
    2.1148    0.2836   -0.2623 H   0  0  0  0  0  0  0  0  0  0  0  0
    0.0000    0.0000    0.0000 C   0  0  0  0  0  0  0  0  0  0  0  0
    0.0140   -0.5839   -0.8163 H   0  0  0  0  0  0  0  0  0  0  0  0
    0.0140   -0.5838    0.8166 H   0  0  0  0  0  0  0  0  0  0  0  0
   -1.2376    0.8116   -0.0000 N   0  0  0  0  0  4  0  0  0  0  0  0
   -1.8489    0.4914   -0.7254 H   0  0  0  0  0  0  0  0  0  0  0  0
   -1.6977    0.7229    0.8847 H   0  0  0  0  0  0  0  0  0  0  0  0
   -1.0089    1.7728   -0.1602 H   0  0  0  0  0  0  0  0  0  0  0  0
   -0.9117    4.4546    2.0393 C   0  0  0  0  0  0  0  0  0  0  0  0
   -0.4358    3.8888    2.7361 H   0  0  0  0  0  0  0  0  0  0  0  0
   -1.0595    5.3709    2.4519 H   0  0  0  0  0  0  0  0  0  0  0  0
   -0.2703    4.5557    1.1638 H   0  0  0  0  0  0  0  0  0  0  0  0
   -2.4914    3.7026    1.5831 S   0  0  0  0  0  0  0  0  0  0  0  0
   -3.4997    4.3638    2.9013 C   0  0  0  0  0  0  0  0  0  0  0  0
   -3.5998    5.3537    2.7867 H   0  0  0  0  0  0  0  0  0  0  0  0
   -4.4057    3.9366    2.8808 H   0  0  0  0  0  0  0  0  0  0  0  0
   -3.0663    4.1759    3.7847 H   0  0  0  0  0  0  0  0  0  0  0  0
  1  5  1  0
  5  8  1  0
  1  2  1  0
  1  3  1  0
  1  4  1  0
  5  6  1  0
  5  7  1  0
  8  9  1  0
  8 10  1  0
  8 11  1  0
 12 16  1  0
 16 17  1  0
 12 13  1  0
 12 14  1  0
 12 15  1  0
 17 18  1  0
 17 19  1  0
 17 20  1  0
M  CHG  1   8   1
M  END
>  <PDB_ID>  (1417) 
pdb4xsg

>  <RESIDUE_NAME>  (1417) 
LYS   MET

>  <FRAG_NAME>  (1417) 
ETAM   MSM

>  <FRAG_ATOM_NUM>  (1417) 
fragi: 11  fragj: 9

>  <atom.prop.CHAIN_ID>  (1417) 
A A A A A A A A A A A Z Z Z Z Z Z Z Z Z

>  <atom.prop.IS_HEAVY_ATOM>  (1417) 
1 0 0 0 1 0 0 1 0 0 0 1 0 0 0 1 1 0 0 0

>  <DIFUSE_FUNC_ATOM>  (1417) 
n/a

>  <FINAL_SINGLE_POINT_ENERGY>  (1417) 
0

>  <NONCOV_INTER_ENERGY_QM>  (1417) 
0

>  <FF_Energy>  (1417) 
-5.06

>  <QM_Energy>  (1417) 
-11.27

>  <source>  (1417) 
ETAM_MSM

>  <Index>  (1417) 
8970

$$$$
ETAM-pdb4xs7-B-LYS-221:MSM-pdb4xs7-B-MET-197
     RDKit          3D

 20 18  0  0  0  0  0  0  0  0999 V2000
    1.2733    0.8539    0.0000 C   0  0  0  0  0  0  0  0  0  0  0  0
    1.1968    1.5316    0.7180 H   0  0  0  0  0  0  0  0  0  0  0  0
    1.3638    1.2813   -0.8879 H   0  0  0  0  0  0  0  0  0  0  0  0
    2.1531    0.2386    0.1882 H   0  0  0  0  0  0  0  0  0  0  0  0
    0.0000    0.0000    0.0000 C   0  0  0  0  0  0  0  0  0  0  0  0
    0.0138   -0.5983   -0.8166 H   0  0  0  0  0  0  0  0  0  0  0  0
    0.0139   -0.5983    0.8162 H   0  0  0  0  0  0  0  0  0  0  0  0
   -1.2733    0.7898   -0.0000 N   0  0  0  0  0  4  0  0  0  0  0  0
   -1.1779    1.5636    0.6233 H   0  0  0  0  0  0  0  0  0  0  0  0
   -1.4533    1.1198   -0.9244 H   0  0  0  0  0  0  0  0  0  0  0  0
   -2.0218    0.2031    0.3017 H   0  0  0  0  0  0  0  0  0  0  0  0
    2.3080    1.6603    3.8860 C   0  0  0  0  0  0  0  0  0  0  0  0
    2.8699    2.1794    3.2045 H   0  0  0  0  0  0  0  0  0  0  0  0
    2.6281    0.6883    3.8245 H   0  0  0  0  0  0  0  0  0  0  0  0
    2.5462    2.0364    4.8810 H   0  0  0  0  0  0  0  0  0  0  0  0
    0.5417    1.7799    3.4841 S   0  0  0  0  0  0  0  0  0  0  0  0
   -0.1649    0.5408    4.5867 C   0  0  0  0  0  0  0  0  0  0  0  0
   -0.9325    0.9413    5.0848 H   0  0  0  0  0  0  0  0  0  0  0  0
   -0.4839   -0.2380    4.0473 H   0  0  0  0  0  0  0  0  0  0  0  0
    0.5336    0.2386    5.2340 H   0  0  0  0  0  0  0  0  0  0  0  0
  1  5  1  0
  5  8  1  0
  1  2  1  0
  1  3  1  0
  1  4  1  0
  5  6  1  0
  5  7  1  0
  8  9  1  0
  8 10  1  0
  8 11  1  0
 12 16  1  0
 16 17  1  0
 12 13  1  0
 12 14  1  0
 12 15  1  0
 17 18  1  0
 17 19  1  0
 17 20  1  0
M  CHG  1   8   1
M  END
>  <PDB_ID>  (1418) 
pdb4xs7

>  <RESIDUE_NAME>  (1418) 
LYS   MET

>  <FRAG_NAME>  (1418) 
ETAM   MSM

>  <FRAG_ATOM_NUM>  (1418) 
fragi: 11  fragj: 9

>  <atom.prop.CHAIN_ID>  (1418) 
A A A A A A A A A A A Z Z Z Z Z Z Z Z Z

>  <atom.prop.IS_HEAVY_ATOM>  (1418) 
1 0 0 0 1 0 0 1 0 0 0 1 0 0 0 1 1 0 0 0

>  <DIFUSE_FUNC_ATOM>  (1418) 
n/a

>  <FINAL_SINGLE_POINT_ENERGY>  (1418) 
0

>  <NONCOV_INTER_ENERGY_QM>  (1418) 
0

>  <FF_Energy>  (1418) 
-4.43

>  <QM_Energy>  (1418) 
-9.66

>  <source>  (1418) 
ETAM_MSM

>  <Index>  (1418) 
8975

$$$$
ETAM-pdb3wla-C-LYS-187:MSM-pdb3wla-C-MET-201
     RDKit          3D

 20 18  0  0  0  0  0  0  0  0999 V2000
    1.2605    0.8883   -0.0000 C   0  0  0  0  0  0  0  0  0  0  0  0
    1.5350    1.0568   -0.9446 H   0  0  0  0  0  0  0  0  0  0  0  0
    1.9898    0.4114    0.4851 H   0  0  0  0  0  0  0  0  0  0  0  0
    1.1223    1.8566    0.4809 H   0  0  0  0  0  0  0  0  0  0  0  0
    0.0000    0.0000    0.0000 C   0  0  0  0  0  0  0  0  0  0  0  0
    0.0085   -0.5703   -0.8161 H   0  0  0  0  0  0  0  0  0  0  0  0
    0.0082   -0.5710    0.8160 H   0  0  0  0  0  0  0  0  0  0  0  0
   -1.2605    0.8387    0.0000 N   0  0  0  0  0  4  0  0  0  0  0  0
   -1.0369    1.7492   -0.3331 H   0  0  0  0  0  0  0  0  0  0  0  0
   -1.9299    0.4075   -0.5977 H   0  0  0  0  0  0  0  0  0  0  0  0
   -1.6105    0.8884    0.9304 H   0  0  0  0  0  0  0  0  0  0  0  0
   -5.1532    0.9345   -2.5519 C   0  0  0  0  0  0  0  0  0  0  0  0
   -5.4706    1.5725   -3.2376 H   0  0  0  0  0  0  0  0  0  0  0  0
   -5.7037    0.9875   -1.7317 H   0  0  0  0  0  0  0  0  0  0  0  0
   -5.1514   -0.0813   -2.9471 H   0  0  0  0  0  0  0  0  0  0  0  0
   -3.4022    1.2769   -2.1477 S   0  0  0  0  0  0  0  0  0  0  0  0
   -2.7647    1.1979   -3.8528 C   0  0  0  0  0  0  0  0  0  0  0  0
   -1.9796    1.8054   -3.9292 H   0  0  0  0  0  0  0  0  0  0  0  0
   -2.4933    0.2598   -4.0504 H   0  0  0  0  0  0  0  0  0  0  0  0
   -3.4845    1.4865   -4.4781 H   0  0  0  0  0  0  0  0  0  0  0  0
  1  5  1  0
  5  8  1  0
  1  2  1  0
  1  3  1  0
  1  4  1  0
  5  6  1  0
  5  7  1  0
  8  9  1  0
  8 10  1  0
  8 11  1  0
 12 16  1  0
 16 17  1  0
 12 13  1  0
 12 14  1  0
 12 15  1  0
 17 18  1  0
 17 19  1  0
 17 20  1  0
M  CHG  1   8   1
M  END
>  <PDB_ID>  (1419) 
pdb3wla

>  <RESIDUE_NAME>  (1419) 
LYS   MET

>  <FRAG_NAME>  (1419) 
ETAM   MSM

>  <FRAG_ATOM_NUM>  (1419) 
fragi: 11  fragj: 9

>  <atom.prop.CHAIN_ID>  (1419) 
A A A A A A A A A A A Z Z Z Z Z Z Z Z Z

>  <atom.prop.IS_HEAVY_ATOM>  (1419) 
1 0 0 0 1 0 0 1 0 0 0 1 0 0 0 1 1 0 0 0

>  <DIFUSE_FUNC_ATOM>  (1419) 
n/a

>  <FINAL_SINGLE_POINT_ENERGY>  (1419) 
0

>  <NONCOV_INTER_ENERGY_QM>  (1419) 
0

>  <FF_Energy>  (1419) 
-4.21

>  <QM_Energy>  (1419) 
-14.21

>  <source>  (1419) 
ETAM_MSM

>  <Index>  (1419) 
8981

$$$$
ETAM-pdb4y0v-B-LYS-138:MSM-pdb4y0v-B-MET-130
     RDKit          3D

 20 18  0  0  0  0  0  0  0  0999 V2000
    1.2471    0.8871   -0.0000 C   0  0  0  0  0  0  0  0  0  0  0  0
    1.2549    1.4120    0.8446 H   0  0  0  0  0  0  0  0  0  0  0  0
    1.1966    1.4935   -0.7860 H   0  0  0  0  0  0  0  0  0  0  0  0
    2.1577    0.2913   -0.0621 H   0  0  0  0  0  0  0  0  0  0  0  0
    0.0000    0.0000    0.0000 C   0  0  0  0  0  0  0  0  0  0  0  0
    0.0148   -0.5760   -0.8157 H   0  0  0  0  0  0  0  0  0  0  0  0
    0.0142   -0.5767    0.8163 H   0  0  0  0  0  0  0  0  0  0  0  0
   -1.2471    0.8224    0.0000 N   0  0  0  0  0  4  0  0  0  0  0  0
   -1.1975    1.4950   -0.7361 H   0  0  0  0  0  0  0  0  0  0  0  0
   -2.0342    0.2252   -0.1422 H   0  0  0  0  0  0  0  0  0  0  0  0
   -1.3326    1.2896    0.8788 H   0  0  0  0  0  0  0  0  0  0  0  0
   -1.3706    4.8705    2.4915 C   0  0  0  0  0  0  0  0  0  0  0  0
   -2.0346    4.1050    2.6682 H   0  0  0  0  0  0  0  0  0  0  0  0
   -1.9526    5.6743    2.2216 H   0  0  0  0  0  0  0  0  0  0  0  0
   -0.8741    5.1110    3.4315 H   0  0  0  0  0  0  0  0  0  0  0  0
   -0.2256    4.4345    1.1668 S   0  0  0  0  0  0  0  0  0  0  0  0
    0.2929    6.0361    0.5609 C   0  0  0  0  0  0  0  0  0  0  0  0
    1.1941    6.2614    0.9347 H   0  0  0  0  0  0  0  0  0  0  0  0
    0.3442    6.0177   -0.4394 H   0  0  0  0  0  0  0  0  0  0  0  0
   -0.3670    6.7333    0.8452 H   0  0  0  0  0  0  0  0  0  0  0  0
  1  5  1  0
  5  8  1  0
  1  2  1  0
  1  3  1  0
  1  4  1  0
  5  6  1  0
  5  7  1  0
  8  9  1  0
  8 10  1  0
  8 11  1  0
 12 16  1  0
 16 17  1  0
 12 13  1  0
 12 14  1  0
 12 15  1  0
 17 18  1  0
 17 19  1  0
 17 20  1  0
M  CHG  1   8   1
M  END
>  <PDB_ID>  (1420) 
pdb4y0v

>  <RESIDUE_NAME>  (1420) 
LYS   MET

>  <FRAG_NAME>  (1420) 
ETAM   MSM

>  <FRAG_ATOM_NUM>  (1420) 
fragi: 11  fragj: 9

>  <atom.prop.CHAIN_ID>  (1420) 
A A A A A A A A A A A Z Z Z Z Z Z Z Z Z

>  <atom.prop.IS_HEAVY_ATOM>  (1420) 
1 0 0 0 1 0 0 1 0 0 0 1 0 0 0 1 1 0 0 0

>  <DIFUSE_FUNC_ATOM>  (1420) 
n/a

>  <FINAL_SINGLE_POINT_ENERGY>  (1420) 
0

>  <NONCOV_INTER_ENERGY_QM>  (1420) 
0

>  <FF_Energy>  (1420) 
-4.72

>  <QM_Energy>  (1420) 
-10.14

>  <source>  (1420) 
ETAM_MSM

>  <Index>  (1420) 
9000

$$$$
ETAM-pdb3wwy-A-LYS-215:MSM-pdb3wwy-A-MET-239
     RDKit          3D

 20 18  0  0  0  0  0  0  0  0999 V2000
    1.2301    0.8778    0.0000 C   0  0  0  0  0  0  0  0  0  0  0  0
    1.3803    1.2085   -0.9233 H   0  0  0  0  0  0  0  0  0  0  0  0
    2.0027    0.3369    0.3098 H   0  0  0  0  0  0  0  0  0  0  0  0
    1.0832    1.7238    0.6714 H   0  0  0  0  0  0  0  0  0  0  0  0
    0.0000    0.0000    0.0000 C   0  0  0  0  0  0  0  0  0  0  0  0
    0.0130   -0.5808   -0.8159 H   0  0  0  0  0  0  0  0  0  0  0  0
    0.0130   -0.5813    0.8163 H   0  0  0  0  0  0  0  0  0  0  0  0
   -1.2301    0.8180    0.0000 N   0  0  0  0  0  4  0  0  0  0  0  0
   -1.3046    1.3155    0.8664 H   0  0  0  0  0  0  0  0  0  0  0  0
   -1.1986    1.4747   -0.7557 H   0  0  0  0  0  0  0  0  0  0  0  0
   -2.0297    0.2250   -0.1104 H   0  0  0  0  0  0  0  0  0  0  0  0
   -0.9310    3.5375   -4.3207 C   0  0  0  0  0  0  0  0  0  0  0  0
   -1.3114    4.1325   -5.0803 H   0  0  0  0  0  0  0  0  0  0  0  0
   -0.1593    3.0170   -4.7773 H   0  0  0  0  0  0  0  0  0  0  0  0
   -0.5023    4.1882   -3.5584 H   0  0  0  0  0  0  0  0  0  0  0  0
   -2.1630    2.4331   -3.6998 S   0  0  0  0  0  0  0  0  0  0  0  0
   -1.2755    1.5610   -2.4703 C   0  0  0  0  0  0  0  0  0  0  0  0
   -1.0895    2.1540   -1.6764 H   0  0  0  0  0  0  0  0  0  0  0  0
   -1.8007    0.7624   -2.1505 H   0  0  0  0  0  0  0  0  0  0  0  0
   -0.3933    1.2328   -2.8325 H   0  0  0  0  0  0  0  0  0  0  0  0
  1  5  1  0
  5  8  1  0
  1  2  1  0
  1  3  1  0
  1  4  1  0
  5  6  1  0
  5  7  1  0
  8  9  1  0
  8 10  1  0
  8 11  1  0
 12 16  1  0
 16 17  1  0
 12 13  1  0
 12 14  1  0
 12 15  1  0
 17 18  1  0
 17 19  1  0
 17 20  1  0
M  CHG  1   8   1
M  END
>  <PDB_ID>  (1421) 
pdb3wwy

>  <RESIDUE_NAME>  (1421) 
LYS   MET

>  <FRAG_NAME>  (1421) 
ETAM   MSM

>  <FRAG_ATOM_NUM>  (1421) 
fragi: 11  fragj: 9

>  <atom.prop.CHAIN_ID>  (1421) 
A A A A A A A A A A A Z Z Z Z Z Z Z Z Z

>  <atom.prop.IS_HEAVY_ATOM>  (1421) 
1 0 0 0 1 0 0 1 0 0 0 1 0 0 0 1 1 0 0 0

>  <DIFUSE_FUNC_ATOM>  (1421) 
n/a

>  <FINAL_SINGLE_POINT_ENERGY>  (1421) 
0

>  <NONCOV_INTER_ENERGY_QM>  (1421) 
0

>  <FF_Energy>  (1421) 
29.57

>  <QM_Energy>  (1421) 
16.86

>  <source>  (1421) 
ETAM_MSM

>  <Index>  (1421) 
9007

$$$$
ETAM-pdb4yaq-B-LYS-89:MSM-pdb4yaq-A-MET-100
     RDKit          3D

 20 18  0  0  0  0  0  0  0  0999 V2000
    1.2466    0.8708    0.0000 C   0  0  0  0  0  0  0  0  0  0  0  0
    1.1667    1.5402    0.7308 H   0  0  0  0  0  0  0  0  0  0  0  0
    1.3159    1.3254   -0.8808 H   0  0  0  0  0  0  0  0  0  0  0  0
    2.1463    0.2773    0.1628 H   0  0  0  0  0  0  0  0  0  0  0  0
    0.0000    0.0000    0.0000 C   0  0  0  0  0  0  0  0  0  0  0  0
    0.0110   -0.5846   -0.8162 H   0  0  0  0  0  0  0  0  0  0  0  0
    0.0111   -0.5841    0.8160 H   0  0  0  0  0  0  0  0  0  0  0  0
   -1.2466    0.8154   -0.0000 N   0  0  0  0  0  4  0  0  0  0  0  0
   -1.6724    0.7689    0.9029 H   0  0  0  0  0  0  0  0  0  0  0  0
   -1.0212    1.7649   -0.2153 H   0  0  0  0  0  0  0  0  0  0  0  0
   -1.8773    0.4559   -0.6868 H   0  0  0  0  0  0  0  0  0  0  0  0
   -3.0346    3.3408   -1.6856 C   0  0  0  0  0  0  0  0  0  0  0  0
   -3.6719    3.9987   -1.2162 H   0  0  0  0  0  0  0  0  0  0  0  0
   -3.1586    2.4491   -1.1873 H   0  0  0  0  0  0  0  0  0  0  0  0
   -3.3751    3.2097   -2.7128 H   0  0  0  0  0  0  0  0  0  0  0  0
   -1.3271    3.9081   -1.5624 S   0  0  0  0  0  0  0  0  0  0  0  0
   -1.1959    4.2151    0.1971 C   0  0  0  0  0  0  0  0  0  0  0  0
   -1.1325    5.2003    0.3621 H   0  0  0  0  0  0  0  0  0  0  0  0
   -2.0044    3.8517    0.6624 H   0  0  0  0  0  0  0  0  0  0  0  0
   -0.3770    3.7658    0.5564 H   0  0  0  0  0  0  0  0  0  0  0  0
  1  5  1  0
  5  8  1  0
  1  2  1  0
  1  3  1  0
  1  4  1  0
  5  6  1  0
  5  7  1  0
  8  9  1  0
  8 10  1  0
  8 11  1  0
 12 16  1  0
 16 17  1  0
 12 13  1  0
 12 14  1  0
 12 15  1  0
 17 18  1  0
 17 19  1  0
 17 20  1  0
M  CHG  1   8   1
M  END
>  <PDB_ID>  (1422) 
pdb4yaq

>  <RESIDUE_NAME>  (1422) 
LYS   MET

>  <FRAG_NAME>  (1422) 
ETAM   MSM

>  <FRAG_ATOM_NUM>  (1422) 
fragi: 11  fragj: 9

>  <atom.prop.CHAIN_ID>  (1422) 
A A A A A A A A A A A Z Z Z Z Z Z Z Z Z

>  <atom.prop.IS_HEAVY_ATOM>  (1422) 
1 0 0 0 1 0 0 1 0 0 0 1 0 0 0 1 1 0 0 0

>  <DIFUSE_FUNC_ATOM>  (1422) 
n/a

>  <FINAL_SINGLE_POINT_ENERGY>  (1422) 
0

>  <NONCOV_INTER_ENERGY_QM>  (1422) 
0

>  <FF_Energy>  (1422) 
-2.84

>  <QM_Energy>  (1422) 
-9.43

>  <source>  (1422) 
ETAM_MSM

>  <Index>  (1422) 
9020

$$$$
ETAM-pdb4yb5-A-LYS-97:MSM-pdb4yb5-A-MET-221
     RDKit          3D

 20 18  0  0  0  0  0  0  0  0999 V2000
    1.2598    0.8742    0.0000 C   0  0  0  0  0  0  0  0  0  0  0  0
    1.1587    1.5626   -0.7144 H   0  0  0  0  0  0  0  0  0  0  0  0
    2.0423    0.2889   -0.2002 H   0  0  0  0  0  0  0  0  0  0  0  0
    1.4173    1.3714    0.9571 H   0  0  0  0  0  0  0  0  0  0  0  0
    0.0000    0.0000    0.0000 C   0  0  0  0  0  0  0  0  0  0  0  0
    0.0215   -0.5907   -0.8159 H   0  0  0  0  0  0  0  0  0  0  0  0
    0.0215   -0.5907    0.8162 H   0  0  0  0  0  0  0  0  0  0  0  0
   -1.2598    0.7920    0.0000 N   0  0  0  0  0  4  0  0  0  0  0  0
   -1.3335    1.2977   -0.8585 H   0  0  0  0  0  0  0  0  0  0  0  0
   -2.0400    0.1741    0.0925 H   0  0  0  0  0  0  0  0  0  0  0  0
   -1.2485    1.4336    0.7667 H   0  0  0  0  0  0  0  0  0  0  0  0
   -0.9581    4.1164   -3.7269 C   0  0  0  0  0  0  0  0  0  0  0  0
   -0.6158    4.5298   -4.6037 H   0  0  0  0  0  0  0  0  0  0  0  0
   -0.9903    4.8950   -3.0566 H   0  0  0  0  0  0  0  0  0  0  0  0
   -1.9710    3.7463   -3.8852 H   0  0  0  0  0  0  0  0  0  0  0  0
    0.1737    2.8346   -3.1505 S   0  0  0  0  0  0  0  0  0  0  0  0
    0.3628    1.7114   -4.5403 C   0  0  0  0  0  0  0  0  0  0  0  0
   -0.4390    1.7793   -5.1342 H   0  0  0  0  0  0  0  0  0  0  0  0
    1.1825    1.9563   -5.0575 H   0  0  0  0  0  0  0  0  0  0  0  0
    0.4493    0.7737   -4.2017 H   0  0  0  0  0  0  0  0  0  0  0  0
  1  5  1  0
  5  8  1  0
  1  2  1  0
  1  3  1  0
  1  4  1  0
  5  6  1  0
  5  7  1  0
  8  9  1  0
  8 10  1  0
  8 11  1  0
 12 16  1  0
 16 17  1  0
 12 13  1  0
 12 14  1  0
 12 15  1  0
 17 18  1  0
 17 19  1  0
 17 20  1  0
M  CHG  1   8   1
M  END
>  <PDB_ID>  (1423) 
pdb4yb5

>  <RESIDUE_NAME>  (1423) 
LYS   MET

>  <FRAG_NAME>  (1423) 
ETAM   MSM

>  <FRAG_ATOM_NUM>  (1423) 
fragi: 11  fragj: 9

>  <atom.prop.CHAIN_ID>  (1423) 
A A A A A A A A A A A Z Z Z Z Z Z Z Z Z

>  <atom.prop.IS_HEAVY_ATOM>  (1423) 
1 0 0 0 1 0 0 1 0 0 0 1 0 0 0 1 1 0 0 0

>  <DIFUSE_FUNC_ATOM>  (1423) 
n/a

>  <FINAL_SINGLE_POINT_ENERGY>  (1423) 
0

>  <NONCOV_INTER_ENERGY_QM>  (1423) 
0

>  <FF_Energy>  (1423) 
-4.47

>  <QM_Energy>  (1423) 
-12.07

>  <source>  (1423) 
ETAM_MSM

>  <Index>  (1423) 
9027

$$$$
ETAM-pdb4yb5-B-LYS-97:MSM-pdb4yb5-B-MET-221
     RDKit          3D

 20 18  0  0  0  0  0  0  0  0999 V2000
    1.2577    0.8669   -0.0000 C   0  0  0  0  0  0  0  0  0  0  0  0
    1.1618    1.5545   -0.7151 H   0  0  0  0  0  0  0  0  0  0  0  0
    2.0398    0.2805   -0.1931 H   0  0  0  0  0  0  0  0  0  0  0  0
    1.4090    1.3644    0.9580 H   0  0  0  0  0  0  0  0  0  0  0  0
    0.0000    0.0000    0.0000 C   0  0  0  0  0  0  0  0  0  0  0  0
    0.0171   -0.5916   -0.8169 H   0  0  0  0  0  0  0  0  0  0  0  0
    0.0169   -0.5913    0.8164 H   0  0  0  0  0  0  0  0  0  0  0  0
   -1.2577    0.7955    0.0000 N   0  0  0  0  0  4  0  0  0  0  0  0
   -1.3499    1.2700    0.8752 H   0  0  0  0  0  0  0  0  0  0  0  0
   -1.2266    1.4650   -0.7411 H   0  0  0  0  0  0  0  0  0  0  0  0
   -2.0366    0.1838   -0.1337 H   0  0  0  0  0  0  0  0  0  0  0  0
   -0.9419    4.0983   -3.7487 C   0  0  0  0  0  0  0  0  0  0  0  0
   -0.6070    4.4900   -4.6376 H   0  0  0  0  0  0  0  0  0  0  0  0
   -0.9793    4.8952   -3.1005 H   0  0  0  0  0  0  0  0  0  0  0  0
   -1.9568    3.7300   -3.8982 H   0  0  0  0  0  0  0  0  0  0  0  0
    0.1934    2.8332   -3.1403 S   0  0  0  0  0  0  0  0  0  0  0  0
    0.3810    1.6931   -4.5362 C   0  0  0  0  0  0  0  0  0  0  0  0
    1.1189    1.0523   -4.3362 H   0  0  0  0  0  0  0  0  0  0  0  0
   -0.4744    1.1959   -4.6674 H   0  0  0  0  0  0  0  0  0  0  0  0
    0.5986    2.2169   -5.3576 H   0  0  0  0  0  0  0  0  0  0  0  0
  1  5  1  0
  5  8  1  0
  1  2  1  0
  1  3  1  0
  1  4  1  0
  5  6  1  0
  5  7  1  0
  8  9  1  0
  8 10  1  0
  8 11  1  0
 12 16  1  0
 16 17  1  0
 12 13  1  0
 12 14  1  0
 12 15  1  0
 17 18  1  0
 17 19  1  0
 17 20  1  0
M  CHG  1   8   1
M  END
>  <PDB_ID>  (1424) 
pdb4yb5

>  <RESIDUE_NAME>  (1424) 
LYS   MET

>  <FRAG_NAME>  (1424) 
ETAM   MSM

>  <FRAG_ATOM_NUM>  (1424) 
fragi: 11  fragj: 9

>  <atom.prop.CHAIN_ID>  (1424) 
A A A A A A A A A A A Z Z Z Z Z Z Z Z Z

>  <atom.prop.IS_HEAVY_ATOM>  (1424) 
1 0 0 0 1 0 0 1 0 0 0 1 0 0 0 1 1 0 0 0

>  <DIFUSE_FUNC_ATOM>  (1424) 
n/a

>  <FINAL_SINGLE_POINT_ENERGY>  (1424) 
0

>  <NONCOV_INTER_ENERGY_QM>  (1424) 
0

>  <FF_Energy>  (1424) 
-4.51

>  <QM_Energy>  (1424) 
-12.13

>  <source>  (1424) 
ETAM_MSM

>  <Index>  (1424) 
9028

$$$$
ETAM-pdb4yb5-C-LYS-97:MSM-pdb4yb5-C-MET-221
     RDKit          3D

 20 18  0  0  0  0  0  0  0  0999 V2000
    1.2639    0.8593    0.0000 C   0  0  0  0  0  0  0  0  0  0  0  0
    1.1747    1.5496   -0.7132 H   0  0  0  0  0  0  0  0  0  0  0  0
    2.0443    0.2697   -0.1898 H   0  0  0  0  0  0  0  0  0  0  0  0
    1.4203    1.3576    0.9567 H   0  0  0  0  0  0  0  0  0  0  0  0
    0.0000    0.0000    0.0000 C   0  0  0  0  0  0  0  0  0  0  0  0
    0.0090   -0.5894   -0.8165 H   0  0  0  0  0  0  0  0  0  0  0  0
    0.0088   -0.5901    0.8162 H   0  0  0  0  0  0  0  0  0  0  0  0
   -1.2639    0.8089    0.0000 N   0  0  0  0  0  4  0  0  0  0  0  0
   -2.0069    0.2513   -0.3630 H   0  0  0  0  0  0  0  0  0  0  0  0
   -1.4732    1.0862    0.9354 H   0  0  0  0  0  0  0  0  0  0  0  0
   -1.1337    1.6162   -0.5723 H   0  0  0  0  0  0  0  0  0  0  0  0
   -0.9223    4.0985   -3.7601 C   0  0  0  0  0  0  0  0  0  0  0  0
   -0.5805    4.4954   -4.6449 H   0  0  0  0  0  0  0  0  0  0  0  0
   -0.9434    4.8880   -3.1018 H   0  0  0  0  0  0  0  0  0  0  0  0
   -1.9401    3.7379   -3.9088 H   0  0  0  0  0  0  0  0  0  0  0  0
    0.2043    2.8143   -3.1672 S   0  0  0  0  0  0  0  0  0  0  0  0
    0.3778    1.6847   -4.5651 C   0  0  0  0  0  0  0  0  0  0  0  0
   -0.3510    1.0024   -4.5293 H   0  0  0  0  0  0  0  0  0  0  0  0
    0.3130    2.2025   -5.4166 H   0  0  0  0  0  0  0  0  0  0  0  0
    1.2658    1.2312   -4.5132 H   0  0  0  0  0  0  0  0  0  0  0  0
  1  5  1  0
  5  8  1  0
  1  2  1  0
  1  3  1  0
  1  4  1  0
  5  6  1  0
  5  7  1  0
  8  9  1  0
  8 10  1  0
  8 11  1  0
 12 16  1  0
 16 17  1  0
 12 13  1  0
 12 14  1  0
 12 15  1  0
 17 18  1  0
 17 19  1  0
 17 20  1  0
M  CHG  1   8   1
M  END
>  <PDB_ID>  (1425) 
pdb4yb5

>  <RESIDUE_NAME>  (1425) 
LYS   MET

>  <FRAG_NAME>  (1425) 
ETAM   MSM

>  <FRAG_ATOM_NUM>  (1425) 
fragi: 11  fragj: 9

>  <atom.prop.CHAIN_ID>  (1425) 
A A A A A A A A A A A Z Z Z Z Z Z Z Z Z

>  <atom.prop.IS_HEAVY_ATOM>  (1425) 
1 0 0 0 1 0 0 1 0 0 0 1 0 0 0 1 1 0 0 0

>  <DIFUSE_FUNC_ATOM>  (1425) 
n/a

>  <FINAL_SINGLE_POINT_ENERGY>  (1425) 
0

>  <NONCOV_INTER_ENERGY_QM>  (1425) 
0

>  <FF_Energy>  (1425) 
-4.47

>  <QM_Energy>  (1425) 
-11.65

>  <source>  (1425) 
ETAM_MSM

>  <Index>  (1425) 
9029

$$$$
ETAM-pdb4yb5-E-LYS-97:MSM-pdb4yb5-E-MET-221
     RDKit          3D

 20 18  0  0  0  0  0  0  0  0999 V2000
    1.2606    0.8693   -0.0000 C   0  0  0  0  0  0  0  0  0  0  0  0
    1.1654    1.5578   -0.7145 H   0  0  0  0  0  0  0  0  0  0  0  0
    2.0431    0.2834   -0.1919 H   0  0  0  0  0  0  0  0  0  0  0  0
    1.4153    1.3687    0.9565 H   0  0  0  0  0  0  0  0  0  0  0  0
    0.0000    0.0000    0.0000 C   0  0  0  0  0  0  0  0  0  0  0  0
    0.0190   -0.5919   -0.8164 H   0  0  0  0  0  0  0  0  0  0  0  0
    0.0182   -0.5915    0.8165 H   0  0  0  0  0  0  0  0  0  0  0  0
   -1.2606    0.7933    0.0000 N   0  0  0  0  0  4  0  0  0  0  0  0
   -1.0513    1.7484   -0.2094 H   0  0  0  0  0  0  0  0  0  0  0  0
   -1.8825    0.4265   -0.6913 H   0  0  0  0  0  0  0  0  0  0  0  0
   -1.6894    0.7340    0.9009 H   0  0  0  0  0  0  0  0  0  0  0  0
   -0.9659    4.0842   -3.7385 C   0  0  0  0  0  0  0  0  0  0  0  0
   -0.6296    4.4837   -4.6237 H   0  0  0  0  0  0  0  0  0  0  0  0
   -0.9932    4.8729   -3.0805 H   0  0  0  0  0  0  0  0  0  0  0  0
   -1.9812    3.7160   -3.8859 H   0  0  0  0  0  0  0  0  0  0  0  0
    0.1711    2.8080   -3.1486 S   0  0  0  0  0  0  0  0  0  0  0  0
    0.3495    1.6744   -4.5244 C   0  0  0  0  0  0  0  0  0  0  0  0
   -0.5280    1.2300   -4.7092 H   0  0  0  0  0  0  0  0  0  0  0  0
    0.6444    2.1775   -5.3382 H   0  0  0  0  0  0  0  0  0  0  0  0
    1.0326    0.9784   -4.2988 H   0  0  0  0  0  0  0  0  0  0  0  0
  1  5  1  0
  5  8  1  0
  1  2  1  0
  1  3  1  0
  1  4  1  0
  5  6  1  0
  5  7  1  0
  8  9  1  0
  8 10  1  0
  8 11  1  0
 12 16  1  0
 16 17  1  0
 12 13  1  0
 12 14  1  0
 12 15  1  0
 17 18  1  0
 17 19  1  0
 17 20  1  0
M  CHG  1   8   1
M  END
>  <PDB_ID>  (1426) 
pdb4yb5

>  <RESIDUE_NAME>  (1426) 
LYS   MET

>  <FRAG_NAME>  (1426) 
ETAM   MSM

>  <FRAG_ATOM_NUM>  (1426) 
fragi: 11  fragj: 9

>  <atom.prop.CHAIN_ID>  (1426) 
A A A A A A A A A A A Z Z Z Z Z Z Z Z Z

>  <atom.prop.IS_HEAVY_ATOM>  (1426) 
1 0 0 0 1 0 0 1 0 0 0 1 0 0 0 1 1 0 0 0

>  <DIFUSE_FUNC_ATOM>  (1426) 
n/a

>  <FINAL_SINGLE_POINT_ENERGY>  (1426) 
0

>  <NONCOV_INTER_ENERGY_QM>  (1426) 
0

>  <FF_Energy>  (1426) 
-4.42

>  <QM_Energy>  (1426) 
-10.86

>  <source>  (1426) 
ETAM_MSM

>  <Index>  (1426) 
9030

$$$$
ETAM-pdb4yb5-F-LYS-97:MSM-pdb4yb5-F-MET-221
     RDKit          3D

 20 18  0  0  0  0  0  0  0  0999 V2000
    1.2606    0.8724    0.0000 C   0  0  0  0  0  0  0  0  0  0  0  0
    1.1606    1.5618   -0.7147 H   0  0  0  0  0  0  0  0  0  0  0  0
    2.0421    0.2865   -0.2023 H   0  0  0  0  0  0  0  0  0  0  0  0
    1.4216    1.3692    0.9567 H   0  0  0  0  0  0  0  0  0  0  0  0
    0.0000    0.0000    0.0000 C   0  0  0  0  0  0  0  0  0  0  0  0
    0.0199   -0.5907   -0.8165 H   0  0  0  0  0  0  0  0  0  0  0  0
    0.0204   -0.5912    0.8167 H   0  0  0  0  0  0  0  0  0  0  0  0
   -1.2606    0.7929   -0.0000 N   0  0  0  0  0  4  0  0  0  0  0  0
   -1.5710    0.9219    0.9410 H   0  0  0  0  0  0  0  0  0  0  0  0
   -1.0923    1.6830   -0.4221 H   0  0  0  0  0  0  0  0  0  0  0  0
   -1.9604    0.3030   -0.5195 H   0  0  0  0  0  0  0  0  0  0  0  0
   -0.9925    4.0699   -3.7468 C   0  0  0  0  0  0  0  0  0  0  0  0
   -0.6693    4.4743   -4.6374 H   0  0  0  0  0  0  0  0  0  0  0  0
   -1.0260    4.8668   -3.0944 H   0  0  0  0  0  0  0  0  0  0  0  0
   -2.0069    3.6966   -3.8870 H   0  0  0  0  0  0  0  0  0  0  0  0
    0.1657    2.8172   -3.1602 S   0  0  0  0  0  0  0  0  0  0  0  0
    0.3421    1.6982   -4.5600 C   0  0  0  0  0  0  0  0  0  0  0  0
   -0.5535    1.3248   -4.7996 H   0  0  0  0  0  0  0  0  0  0  0  0
    0.7157    2.1995   -5.3398 H   0  0  0  0  0  0  0  0  0  0  0  0
    0.9608    0.9530   -4.3123 H   0  0  0  0  0  0  0  0  0  0  0  0
  1  5  1  0
  5  8  1  0
  1  2  1  0
  1  3  1  0
  1  4  1  0
  5  6  1  0
  5  7  1  0
  8  9  1  0
  8 10  1  0
  8 11  1  0
 12 16  1  0
 16 17  1  0
 12 13  1  0
 12 14  1  0
 12 15  1  0
 17 18  1  0
 17 19  1  0
 17 20  1  0
M  CHG  1   8   1
M  END
>  <PDB_ID>  (1427) 
pdb4yb5

>  <RESIDUE_NAME>  (1427) 
LYS   MET

>  <FRAG_NAME>  (1427) 
ETAM   MSM

>  <FRAG_ATOM_NUM>  (1427) 
fragi: 11  fragj: 9

>  <atom.prop.CHAIN_ID>  (1427) 
A A A A A A A A A A A Z Z Z Z Z Z Z Z Z

>  <atom.prop.IS_HEAVY_ATOM>  (1427) 
1 0 0 0 1 0 0 1 0 0 0 1 0 0 0 1 1 0 0 0

>  <DIFUSE_FUNC_ATOM>  (1427) 
n/a

>  <FINAL_SINGLE_POINT_ENERGY>  (1427) 
0

>  <NONCOV_INTER_ENERGY_QM>  (1427) 
0

>  <FF_Energy>  (1427) 
-4.48

>  <QM_Energy>  (1427) 
-11.32

>  <source>  (1427) 
ETAM_MSM

>  <Index>  (1427) 
9031

$$$$
ETAM-pdb4ycu-A-LYS-98:MSM-pdb4ycu-C-MET-3
     RDKit          3D

 20 18  0  0  0  0  0  0  0  0999 V2000
    1.2506    0.8704    0.0000 C   0  0  0  0  0  0  0  0  0  0  0  0
    1.2456    1.4304    0.8197 H   0  0  0  0  0  0  0  0  0  0  0  0
    1.2391    1.4400   -0.8128 H   0  0  0  0  0  0  0  0  0  0  0  0
    2.1538    0.2603   -0.0067 H   0  0  0  0  0  0  0  0  0  0  0  0
    0.0000    0.0000    0.0000 C   0  0  0  0  0  0  0  0  0  0  0  0
    0.0142   -0.5873   -0.8163 H   0  0  0  0  0  0  0  0  0  0  0  0
    0.0141   -0.5869    0.8167 H   0  0  0  0  0  0  0  0  0  0  0  0
   -1.2506    0.8066    0.0000 N   0  0  0  0  0  4  0  0  0  0  0  0
   -1.8686    0.4606    0.7057 H   0  0  0  0  0  0  0  0  0  0  0  0
   -1.0288    1.7624    0.1893 H   0  0  0  0  0  0  0  0  0  0  0  0
   -1.6905    0.7359   -0.8942 H   0  0  0  0  0  0  0  0  0  0  0  0
   -5.9968    2.1387   -1.0792 C   0  0  0  0  0  0  0  0  0  0  0  0
   -5.8858    1.5674   -1.9162 H   0  0  0  0  0  0  0  0  0  0  0  0
   -6.1753    3.0892   -1.3994 H   0  0  0  0  0  0  0  0  0  0  0  0
   -6.8649    1.7840   -0.5236 H   0  0  0  0  0  0  0  0  0  0  0  0
   -4.5079    2.0790   -0.0645 S   0  0  0  0  0  0  0  0  0  0  0  0
   -4.9480    3.2095    1.2524 C   0  0  0  0  0  0  0  0  0  0  0  0
   -4.2916    3.1227    2.0028 H   0  0  0  0  0  0  0  0  0  0  0  0
   -4.9344    4.1487    0.9073 H   0  0  0  0  0  0  0  0  0  0  0  0
   -5.8662    2.9933    1.5882 H   0  0  0  0  0  0  0  0  0  0  0  0
  1  5  1  0
  5  8  1  0
  1  2  1  0
  1  3  1  0
  1  4  1  0
  5  6  1  0
  5  7  1  0
  8  9  1  0
  8 10  1  0
  8 11  1  0
 12 16  1  0
 16 17  1  0
 12 13  1  0
 12 14  1  0
 12 15  1  0
 17 18  1  0
 17 19  1  0
 17 20  1  0
M  CHG  1   8   1
M  END
>  <PDB_ID>  (1428) 
pdb4ycu

>  <RESIDUE_NAME>  (1428) 
LYS   MET

>  <FRAG_NAME>  (1428) 
ETAM   MSM

>  <FRAG_ATOM_NUM>  (1428) 
fragi: 11  fragj: 9

>  <atom.prop.CHAIN_ID>  (1428) 
A A A A A A A A A A A Z Z Z Z Z Z Z Z Z

>  <atom.prop.IS_HEAVY_ATOM>  (1428) 
1 0 0 0 1 0 0 1 0 0 0 1 0 0 0 1 1 0 0 0

>  <DIFUSE_FUNC_ATOM>  (1428) 
n/a

>  <FINAL_SINGLE_POINT_ENERGY>  (1428) 
0

>  <NONCOV_INTER_ENERGY_QM>  (1428) 
0

>  <FF_Energy>  (1428) 
-5.03

>  <QM_Energy>  (1428) 
-11.64

>  <source>  (1428) 
ETAM_MSM

>  <Index>  (1428) 
9044

$$$$
ETAM-pdb4ye6-A-LYS-412:MSM-pdb4ye6-A-MET-408
     RDKit          3D

 20 18  0  0  0  0  0  0  0  0999 V2000
    1.2310    0.8754    0.0000 C   0  0  0  0  0  0  0  0  0  0  0  0
    1.2162    1.4542    0.8165 H   0  0  0  0  0  0  0  0  0  0  0  0
    1.2152    1.4531   -0.8170 H   0  0  0  0  0  0  0  0  0  0  0  0
    2.1569    0.3003   -0.0000 H   0  0  0  0  0  0  0  0  0  0  0  0
    0.0000    0.0000    0.0000 C   0  0  0  0  0  0  0  0  0  0  0  0
    0.0088   -0.5791   -0.8158 H   0  0  0  0  0  0  0  0  0  0  0  0
    0.0080   -0.5789    0.8168 H   0  0  0  0  0  0  0  0  0  0  0  0
   -1.2310    0.8263   -0.0000 N   0  0  0  0  0  4  0  0  0  0  0  0
   -1.7584    0.6401    0.8296 H   0  0  0  0  0  0  0  0  0  0  0  0
   -0.9828    1.7952   -0.0252 H   0  0  0  0  0  0  0  0  0  0  0  0
   -1.7841    0.6033   -0.8029 H   0  0  0  0  0  0  0  0  0  0  0  0
    3.9987    2.6785   -4.2024 C   0  0  0  0  0  0  0  0  0  0  0  0
    4.3253    2.7951   -5.1760 H   0  0  0  0  0  0  0  0  0  0  0  0
    4.1063    1.6678   -4.0155 H   0  0  0  0  0  0  0  0  0  0  0  0
    4.6980    3.2085   -3.5558 H   0  0  0  0  0  0  0  0  0  0  0  0
    2.2918    3.1924   -4.0257 S   0  0  0  0  0  0  0  0  0  0  0  0
    1.8075    2.1959   -2.6494 C   0  0  0  0  0  0  0  0  0  0  0  0
    1.9231    1.2210   -2.8675 H   0  0  0  0  0  0  0  0  0  0  0  0
    2.3706    2.4151   -1.8456 H   0  0  0  0  0  0  0  0  0  0  0  0
    0.8430    2.3626   -2.4220 H   0  0  0  0  0  0  0  0  0  0  0  0
  1  5  1  0
  5  8  1  0
  1  2  1  0
  1  3  1  0
  1  4  1  0
  5  6  1  0
  5  7  1  0
  8  9  1  0
  8 10  1  0
  8 11  1  0
 12 16  1  0
 16 17  1  0
 12 13  1  0
 12 14  1  0
 12 15  1  0
 17 18  1  0
 17 19  1  0
 17 20  1  0
M  CHG  1   8   1
M  END
>  <PDB_ID>  (1429) 
pdb4ye6

>  <RESIDUE_NAME>  (1429) 
LYS   MET

>  <FRAG_NAME>  (1429) 
ETAM   MSM

>  <FRAG_ATOM_NUM>  (1429) 
fragi: 11  fragj: 9

>  <atom.prop.CHAIN_ID>  (1429) 
A A A A A A A A A A A Z Z Z Z Z Z Z Z Z

>  <atom.prop.IS_HEAVY_ATOM>  (1429) 
1 0 0 0 1 0 0 1 0 0 0 1 0 0 0 1 1 0 0 0

>  <DIFUSE_FUNC_ATOM>  (1429) 
n/a

>  <FINAL_SINGLE_POINT_ENERGY>  (1429) 
0

>  <NONCOV_INTER_ENERGY_QM>  (1429) 
0

>  <FF_Energy>  (1429) 
20.49

>  <QM_Energy>  (1429) 
4.86

>  <source>  (1429) 
ETAM_MSM

>  <Index>  (1429) 
9048

$$$$
ETAM-pdb4y99-A-LYS-106:MSM-pdb4y99-A-MET-120
     RDKit          3D

 20 18  0  0  0  0  0  0  0  0999 V2000
    1.2452    0.8723    0.0000 C   0  0  0  0  0  0  0  0  0  0  0  0
    1.1246    1.5872   -0.6759 H   0  0  0  0  0  0  0  0  0  0  0  0
    2.0255    0.3028   -0.2210 H   0  0  0  0  0  0  0  0  0  0  0  0
    1.3856    1.3197    0.9840 H   0  0  0  0  0  0  0  0  0  0  0  0
    0.0000    0.0000    0.0000 C   0  0  0  0  0  0  0  0  0  0  0  0
    0.0173   -0.5873   -0.8161 H   0  0  0  0  0  0  0  0  0  0  0  0
    0.0164   -0.5872    0.8162 H   0  0  0  0  0  0  0  0  0  0  0  0
   -1.2452    0.8020    0.0000 N   0  0  0  0  0  4  0  0  0  0  0  0
   -1.7454    0.6444    0.8526 H   0  0  0  0  0  0  0  0  0  0  0  0
   -1.0181    1.7734   -0.0774 H   0  0  0  0  0  0  0  0  0  0  0  0
   -1.8179    0.5328   -0.7758 H   0  0  0  0  0  0  0  0  0  0  0  0
   -2.5743    2.6410   -3.4252 C   0  0  0  0  0  0  0  0  0  0  0  0
   -1.5515    2.5743   -3.4347 H   0  0  0  0  0  0  0  0  0  0  0  0
   -2.7846    3.6066   -3.1526 H   0  0  0  0  0  0  0  0  0  0  0  0
   -2.9395    2.4808   -4.4397 H   0  0  0  0  0  0  0  0  0  0  0  0
   -3.2782    1.4741   -2.2325 S   0  0  0  0  0  0  0  0  0  0  0  0
   -4.7983    2.3002   -1.7712 C   0  0  0  0  0  0  0  0  0  0  0  0
   -5.4486    2.2574   -2.5321 H   0  0  0  0  0  0  0  0  0  0  0  0
   -5.1952    1.8500   -0.9695 H   0  0  0  0  0  0  0  0  0  0  0  0
   -4.6070    3.2586   -1.5525 H   0  0  0  0  0  0  0  0  0  0  0  0
  1  5  1  0
  5  8  1  0
  1  2  1  0
  1  3  1  0
  1  4  1  0
  5  6  1  0
  5  7  1  0
  8  9  1  0
  8 10  1  0
  8 11  1  0
 12 16  1  0
 16 17  1  0
 12 13  1  0
 12 14  1  0
 12 15  1  0
 17 18  1  0
 17 19  1  0
 17 20  1  0
M  CHG  1   8   1
M  END
>  <PDB_ID>  (1430) 
pdb4y99

>  <RESIDUE_NAME>  (1430) 
LYS   MET

>  <FRAG_NAME>  (1430) 
ETAM   MSM

>  <FRAG_ATOM_NUM>  (1430) 
fragi: 11  fragj: 9

>  <atom.prop.CHAIN_ID>  (1430) 
A A A A A A A A A A A Z Z Z Z Z Z Z Z Z

>  <atom.prop.IS_HEAVY_ATOM>  (1430) 
1 0 0 0 1 0 0 1 0 0 0 1 0 0 0 1 1 0 0 0

>  <DIFUSE_FUNC_ATOM>  (1430) 
n/a

>  <FINAL_SINGLE_POINT_ENERGY>  (1430) 
0

>  <NONCOV_INTER_ENERGY_QM>  (1430) 
0

>  <FF_Energy>  (1430) 
-4.53

>  <QM_Energy>  (1430) 
-13.81

>  <source>  (1430) 
ETAM_MSM

>  <Index>  (1430) 
9054

$$$$
ETAM-pdb4yeg-A-LYS-198:MSM-pdb4yeg-A-MET-130
     RDKit          3D

 20 18  0  0  0  0  0  0  0  0999 V2000
    1.2411    0.8679    0.0000 C   0  0  0  0  0  0  0  0  0  0  0  0
    1.0325    1.7187    0.4537 H   0  0  0  0  0  0  0  0  0  0  0  0
    1.5251    1.0124   -0.9334 H   0  0  0  0  0  0  0  0  0  0  0  0
    2.0334    0.3539    0.5442 H   0  0  0  0  0  0  0  0  0  0  0  0
    0.0000    0.0000    0.0000 C   0  0  0  0  0  0  0  0  0  0  0  0
    0.0097   -0.5849   -0.8165 H   0  0  0  0  0  0  0  0  0  0  0  0
    0.0097   -0.5846    0.8165 H   0  0  0  0  0  0  0  0  0  0  0  0
   -1.2411    0.8162   -0.0000 N   0  0  0  0  0  4  0  0  0  0  0  0
   -1.4239    1.1446    0.9265 H   0  0  0  0  0  0  0  0  0  0  0  0
   -1.1259    1.5974   -0.6143 H   0  0  0  0  0  0  0  0  0  0  0  0
   -2.0080    0.2563   -0.3131 H   0  0  0  0  0  0  0  0  0  0  0  0
   -0.5586    5.4201   -1.8715 C   0  0  0  0  0  0  0  0  0  0  0  0
    0.2914    5.3117   -2.4155 H   0  0  0  0  0  0  0  0  0  0  0  0
   -0.6067    6.3931   -1.5859 H   0  0  0  0  0  0  0  0  0  0  0  0
   -1.4142    5.1972   -2.5089 H   0  0  0  0  0  0  0  0  0  0  0  0
   -0.5438    4.3319   -0.4357 S   0  0  0  0  0  0  0  0  0  0  0  0
   -1.7617    5.1591    0.5773 C   0  0  0  0  0  0  0  0  0  0  0  0
   -2.2840    5.8052    0.0177 H   0  0  0  0  0  0  0  0  0  0  0  0
   -2.3871    4.4836    0.9721 H   0  0  0  0  0  0  0  0  0  0  0  0
   -1.3043    5.6574    1.3161 H   0  0  0  0  0  0  0  0  0  0  0  0
  1  5  1  0
  5  8  1  0
  1  2  1  0
  1  3  1  0
  1  4  1  0
  5  6  1  0
  5  7  1  0
  8  9  1  0
  8 10  1  0
  8 11  1  0
 12 16  1  0
 16 17  1  0
 12 13  1  0
 12 14  1  0
 12 15  1  0
 17 18  1  0
 17 19  1  0
 17 20  1  0
M  CHG  1   8   1
M  END
>  <PDB_ID>  (1431) 
pdb4yeg

>  <RESIDUE_NAME>  (1431) 
LYS   MET

>  <FRAG_NAME>  (1431) 
ETAM   MSM

>  <FRAG_ATOM_NUM>  (1431) 
fragi: 11  fragj: 9

>  <atom.prop.CHAIN_ID>  (1431) 
A A A A A A A A A A A Z Z Z Z Z Z Z Z Z

>  <atom.prop.IS_HEAVY_ATOM>  (1431) 
1 0 0 0 1 0 0 1 0 0 0 1 0 0 0 1 1 0 0 0

>  <DIFUSE_FUNC_ATOM>  (1431) 
n/a

>  <FINAL_SINGLE_POINT_ENERGY>  (1431) 
0

>  <NONCOV_INTER_ENERGY_QM>  (1431) 
0

>  <FF_Energy>  (1431) 
-5.29

>  <QM_Energy>  (1431) 
-13.48

>  <source>  (1431) 
ETAM_MSM

>  <Index>  (1431) 
9056

$$$$
ETAM-pdb4yeg-B-LYS-198:MSM-pdb4yeg-B-MET-130
     RDKit          3D

 20 18  0  0  0  0  0  0  0  0999 V2000
    1.2457    0.8802    0.0000 C   0  0  0  0  0  0  0  0  0  0  0  0
    1.3914    1.2129    0.9226 H   0  0  0  0  0  0  0  0  0  0  0  0
    1.0946    1.6317   -0.6281 H   0  0  0  0  0  0  0  0  0  0  0  0
    2.1145    0.3056   -0.3212 H   0  0  0  0  0  0  0  0  0  0  0  0
    0.0000    0.0000    0.0000 C   0  0  0  0  0  0  0  0  0  0  0  0
    0.0164   -0.5822   -0.8163 H   0  0  0  0  0  0  0  0  0  0  0  0
    0.0162   -0.5824    0.8167 H   0  0  0  0  0  0  0  0  0  0  0  0
   -1.2457    0.8112   -0.0000 N   0  0  0  0  0  4  0  0  0  0  0  0
   -1.0229    1.7633   -0.2094 H   0  0  0  0  0  0  0  0  0  0  0  0
   -1.8740    0.4547   -0.6915 H   0  0  0  0  0  0  0  0  0  0  0  0
   -1.6758    0.7594    0.9009 H   0  0  0  0  0  0  0  0  0  0  0  0
   -2.4516    5.5533   -1.2563 C   0  0  0  0  0  0  0  0  0  0  0  0
   -2.3265    5.3864   -2.2531 H   0  0  0  0  0  0  0  0  0  0  0  0
   -2.3885    6.5599   -1.1201 H   0  0  0  0  0  0  0  0  0  0  0  0
   -3.4529    5.2277   -0.9744 H   0  0  0  0  0  0  0  0  0  0  0  0
   -1.1985    4.6937   -0.2962 S   0  0  0  0  0  0  0  0  0  0  0  0
    0.2707    5.2269   -1.1563 C   0  0  0  0  0  0  0  0  0  0  0  0
    0.7942    4.4288   -1.4611 H   0  0  0  0  0  0  0  0  0  0  0  0
    0.0159    5.7772   -1.9544 H   0  0  0  0  0  0  0  0  0  0  0  0
    0.8397    5.7797   -0.5447 H   0  0  0  0  0  0  0  0  0  0  0  0
  1  5  1  0
  5  8  1  0
  1  2  1  0
  1  3  1  0
  1  4  1  0
  5  6  1  0
  5  7  1  0
  8  9  1  0
  8 10  1  0
  8 11  1  0
 12 16  1  0
 16 17  1  0
 12 13  1  0
 12 14  1  0
 12 15  1  0
 17 18  1  0
 17 19  1  0
 17 20  1  0
M  CHG  1   8   1
M  END
>  <PDB_ID>  (1432) 
pdb4yeg

>  <RESIDUE_NAME>  (1432) 
LYS   MET

>  <FRAG_NAME>  (1432) 
ETAM   MSM

>  <FRAG_ATOM_NUM>  (1432) 
fragi: 11  fragj: 9

>  <atom.prop.CHAIN_ID>  (1432) 
A A A A A A A A A A A Z Z Z Z Z Z Z Z Z

>  <atom.prop.IS_HEAVY_ATOM>  (1432) 
1 0 0 0 1 0 0 1 0 0 0 1 0 0 0 1 1 0 0 0

>  <DIFUSE_FUNC_ATOM>  (1432) 
n/a

>  <FINAL_SINGLE_POINT_ENERGY>  (1432) 
0

>  <NONCOV_INTER_ENERGY_QM>  (1432) 
0

>  <FF_Energy>  (1432) 
-4.66

>  <QM_Energy>  (1432) 
-12.34

>  <source>  (1432) 
ETAM_MSM

>  <Index>  (1432) 
9057

$$$$
ETAM-pdb4yeg-C-LYS-198:MSM-pdb4yeg-C-MET-130
     RDKit          3D

 20 18  0  0  0  0  0  0  0  0999 V2000
    1.2251    0.8841   -0.0000 C   0  0  0  0  0  0  0  0  0  0  0  0
    1.2856    1.3371    0.8834 H   0  0  0  0  0  0  0  0  0  0  0  0
    1.1299    1.5537   -0.7281 H   0  0  0  0  0  0  0  0  0  0  0  0
    2.1219    0.2873   -0.1666 H   0  0  0  0  0  0  0  0  0  0  0  0
    0.0000    0.0000    0.0000 C   0  0  0  0  0  0  0  0  0  0  0  0
    0.0090   -0.5729   -0.8159 H   0  0  0  0  0  0  0  0  0  0  0  0
    0.0078   -0.5732    0.8163 H   0  0  0  0  0  0  0  0  0  0  0  0
   -1.2251    0.8359   -0.0000 N   0  0  0  0  0  4  0  0  0  0  0  0
   -1.6411    0.8193   -0.9100 H   0  0  0  0  0  0  0  0  0  0  0  0
   -1.8757    0.4756    0.6695 H   0  0  0  0  0  0  0  0  0  0  0  0
   -0.9873    1.7772    0.2407 H   0  0  0  0  0  0  0  0  0  0  0  0
   -1.7360    3.3380   -4.7123 C   0  0  0  0  0  0  0  0  0  0  0  0
   -0.7519    3.4321   -5.0074 H   0  0  0  0  0  0  0  0  0  0  0  0
   -2.1495    4.2681   -4.8854 H   0  0  0  0  0  0  0  0  0  0  0  0
   -2.2212    2.6216   -5.3751 H   0  0  0  0  0  0  0  0  0  0  0  0
   -1.8398    2.9094   -2.9631 S   0  0  0  0  0  0  0  0  0  0  0  0
   -0.1006    2.6751   -2.6263 C   0  0  0  0  0  0  0  0  0  0  0  0
    0.3883    3.5396   -2.7563 H   0  0  0  0  0  0  0  0  0  0  0  0
    0.0217    2.3662   -1.6809 H   0  0  0  0  0  0  0  0  0  0  0  0
    0.2747    1.9865   -3.2502 H   0  0  0  0  0  0  0  0  0  0  0  0
  1  5  1  0
  5  8  1  0
  1  2  1  0
  1  3  1  0
  1  4  1  0
  5  6  1  0
  5  7  1  0
  8  9  1  0
  8 10  1  0
  8 11  1  0
 12 16  1  0
 16 17  1  0
 12 13  1  0
 12 14  1  0
 12 15  1  0
 17 18  1  0
 17 19  1  0
 17 20  1  0
M  CHG  1   8   1
M  END
>  <PDB_ID>  (1433) 
pdb4yeg

>  <RESIDUE_NAME>  (1433) 
LYS   MET

>  <FRAG_NAME>  (1433) 
ETAM   MSM

>  <FRAG_ATOM_NUM>  (1433) 
fragi: 11  fragj: 9

>  <atom.prop.CHAIN_ID>  (1433) 
A A A A A A A A A A A Z Z Z Z Z Z Z Z Z

>  <atom.prop.IS_HEAVY_ATOM>  (1433) 
1 0 0 0 1 0 0 1 0 0 0 1 0 0 0 1 1 0 0 0

>  <DIFUSE_FUNC_ATOM>  (1433) 
n/a

>  <FINAL_SINGLE_POINT_ENERGY>  (1433) 
0

>  <NONCOV_INTER_ENERGY_QM>  (1433) 
0

>  <FF_Energy>  (1433) 
5.15

>  <QM_Energy>  (1433) 
-4.16

>  <source>  (1433) 
ETAM_MSM

>  <Index>  (1433) 
9058

$$$$
ETAM-pdb3zfh-A-LYS-295:MSM-pdb3zfh-A-MET-358
     RDKit          3D

 20 18  0  0  0  0  0  0  0  0999 V2000
    1.2471    0.8854   -0.0000 C   0  0  0  0  0  0  0  0  0  0  0  0
    1.1499    1.5697   -0.7134 H   0  0  0  0  0  0  0  0  0  0  0  0
    2.0407    0.3135   -0.1695 H   0  0  0  0  0  0  0  0  0  0  0  0
    1.3793    1.3934    0.9553 H   0  0  0  0  0  0  0  0  0  0  0  0
    0.0000    0.0000    0.0000 C   0  0  0  0  0  0  0  0  0  0  0  0
    0.0119   -0.5746   -0.8163 H   0  0  0  0  0  0  0  0  0  0  0  0
    0.0114   -0.5747    0.8166 H   0  0  0  0  0  0  0  0  0  0  0  0
   -1.2471    0.8282    0.0000 N   0  0  0  0  0  4  0  0  0  0  0  0
   -1.3778    1.2231   -0.9070 H   0  0  0  0  0  0  0  0  0  0  0  0
   -2.0256    0.2479    0.2313 H   0  0  0  0  0  0  0  0  0  0  0  0
   -1.1557    1.5574    0.6755 H   0  0  0  0  0  0  0  0  0  0  0  0
    0.9696    3.4821   -4.1500 C   0  0  0  0  0  0  0  0  0  0  0  0
    0.4296    4.3676   -4.1067 H   0  0  0  0  0  0  0  0  0  0  0  0
    1.0698    3.3041   -5.1677 H   0  0  0  0  0  0  0  0  0  0  0  0
    1.9601    3.6623   -3.7323 H   0  0  0  0  0  0  0  0  0  0  0  0
    0.0446    2.1444   -3.3671 S   0  0  0  0  0  0  0  0  0  0  0  0
    0.9976    0.6736   -3.7352 C   0  0  0  0  0  0  0  0  0  0  0  0
    1.7980    0.6329   -3.1346 H   0  0  0  0  0  0  0  0  0  0  0  0
    0.4317   -0.1388   -3.5887 H   0  0  0  0  0  0  0  0  0  0  0  0
    1.2997    0.6993   -4.6894 H   0  0  0  0  0  0  0  0  0  0  0  0
  1  5  1  0
  5  8  1  0
  1  2  1  0
  1  3  1  0
  1  4  1  0
  5  6  1  0
  5  7  1  0
  8  9  1  0
  8 10  1  0
  8 11  1  0
 12 16  1  0
 16 17  1  0
 12 13  1  0
 12 14  1  0
 12 15  1  0
 17 18  1  0
 17 19  1  0
 17 20  1  0
M  CHG  1   8   1
M  END
>  <PDB_ID>  (1434) 
pdb3zfh

>  <RESIDUE_NAME>  (1434) 
LYS   MET

>  <FRAG_NAME>  (1434) 
ETAM   MSM

>  <FRAG_ATOM_NUM>  (1434) 
fragi: 11  fragj: 9

>  <atom.prop.CHAIN_ID>  (1434) 
A A A A A A A A A A A Z Z Z Z Z Z Z Z Z

>  <atom.prop.IS_HEAVY_ATOM>  (1434) 
1 0 0 0 1 0 0 1 0 0 0 1 0 0 0 1 1 0 0 0

>  <DIFUSE_FUNC_ATOM>  (1434) 
n/a

>  <FINAL_SINGLE_POINT_ENERGY>  (1434) 
0

>  <NONCOV_INTER_ENERGY_QM>  (1434) 
0

>  <FF_Energy>  (1434) 
-5.16

>  <QM_Energy>  (1434) 
-11.3

>  <source>  (1434) 
ETAM_MSM

>  <Index>  (1434) 
9097

$$$$
ETAM-pdb3zet-B-LYS-314:MSM-pdb3zet-B-MET-310
     RDKit          3D

 20 18  0  0  0  0  0  0  0  0999 V2000
    1.2476    0.8577   -0.0000 C   0  0  0  0  0  0  0  0  0  0  0  0
    1.2894    1.3578    0.8543 H   0  0  0  0  0  0  0  0  0  0  0  0
    1.2068    1.4772   -0.7721 H   0  0  0  0  0  0  0  0  0  0  0  0
    2.1336    0.2293   -0.0902 H   0  0  0  0  0  0  0  0  0  0  0  0
    0.0000    0.0000    0.0000 C   0  0  0  0  0  0  0  0  0  0  0  0
    0.0089   -0.5910   -0.8163 H   0  0  0  0  0  0  0  0  0  0  0  0
    0.0084   -0.5911    0.8162 H   0  0  0  0  0  0  0  0  0  0  0  0
   -1.2476    0.8085   -0.0000 N   0  0  0  0  0  4  0  0  0  0  0  0
   -1.4293    1.1388   -0.9262 H   0  0  0  0  0  0  0  0  0  0  0  0
   -2.0111    0.2417    0.3083 H   0  0  0  0  0  0  0  0  0  0  0  0
   -1.1389    1.5878    0.6170 H   0  0  0  0  0  0  0  0  0  0  0  0
   -0.1264   -1.2790    3.3424 C   0  0  0  0  0  0  0  0  0  0  0  0
    0.1635   -0.3074    3.0695 H   0  0  0  0  0  0  0  0  0  0  0  0
    0.4488   -1.8697    2.6921 H   0  0  0  0  0  0  0  0  0  0  0  0
    0.2245   -1.4597    4.3584 H   0  0  0  0  0  0  0  0  0  0  0  0
   -1.8488   -1.5263    3.0606 S   0  0  0  0  0  0  0  0  0  0  0  0
   -1.9588   -3.3019    3.1376 C   0  0  0  0  0  0  0  0  0  0  0  0
   -1.1090   -3.6807    3.5114 H   0  0  0  0  0  0  0  0  0  0  0  0
   -2.7239   -3.5707    3.7268 H   0  0  0  0  0  0  0  0  0  0  0  0
   -2.1075   -3.6743    2.2183 H   0  0  0  0  0  0  0  0  0  0  0  0
  1  5  1  0
  5  8  1  0
  1  2  1  0
  1  3  1  0
  1  4  1  0
  5  6  1  0
  5  7  1  0
  8  9  1  0
  8 10  1  0
  8 11  1  0
 12 16  1  0
 16 17  1  0
 12 13  1  0
 12 14  1  0
 12 15  1  0
 17 18  1  0
 17 19  1  0
 17 20  1  0
M  CHG  1   8   1
M  END
>  <PDB_ID>  (1435) 
pdb3zet

>  <RESIDUE_NAME>  (1435) 
LYS   MET

>  <FRAG_NAME>  (1435) 
ETAM   MSM

>  <FRAG_ATOM_NUM>  (1435) 
fragi: 11  fragj: 9

>  <atom.prop.CHAIN_ID>  (1435) 
A A A A A A A A A A A Z Z Z Z Z Z Z Z Z

>  <atom.prop.IS_HEAVY_ATOM>  (1435) 
1 0 0 0 1 0 0 1 0 0 0 1 0 0 0 1 1 0 0 0

>  <DIFUSE_FUNC_ATOM>  (1435) 
n/a

>  <FINAL_SINGLE_POINT_ENERGY>  (1435) 
0

>  <NONCOV_INTER_ENERGY_QM>  (1435) 
0

>  <FF_Energy>  (1435) 
-3.18

>  <QM_Energy>  (1435) 
-9.28

>  <source>  (1435) 
ETAM_MSM

>  <Index>  (1435) 
9111

$$$$
ETAM-pdb3zs7-A-LYS-4:MSM-pdb3zs7-A-MET-1
     RDKit          3D

 20 18  0  0  0  0  0  0  0  0999 V2000
    1.2640    0.8386   -0.0000 C   0  0  0  0  0  0  0  0  0  0  0  0
    1.2314    1.4627    0.7777 H   0  0  0  0  0  0  0  0  0  0  0  0
    1.3010    1.3576   -0.8506 H   0  0  0  0  0  0  0  0  0  0  0  0
    2.1604    0.2234    0.0784 H   0  0  0  0  0  0  0  0  0  0  0  0
    0.0000    0.0000    0.0000 C   0  0  0  0  0  0  0  0  0  0  0  0
   -0.0105   -0.5874   -0.8159 H   0  0  0  0  0  0  0  0  0  0  0  0
   -0.0109   -0.5872    0.8161 H   0  0  0  0  0  0  0  0  0  0  0  0
   -1.2640    0.8372    0.0000 N   0  0  0  0  0  4  0  0  0  0  0  0
   -1.1693    1.5556   -0.6830 H   0  0  0  0  0  0  0  0  0  0  0  0
   -2.0350    0.2483   -0.2222 H   0  0  0  0  0  0  0  0  0  0  0  0
   -1.3823    1.2342    0.9045 H   0  0  0  0  0  0  0  0  0  0  0  0
   -2.6825    0.5974    3.7193 C   0  0  0  0  0  0  0  0  0  0  0  0
   -3.3672   -0.0055    3.3135 H   0  0  0  0  0  0  0  0  0  0  0  0
   -3.1304    1.2556    4.3223 H   0  0  0  0  0  0  0  0  0  0  0  0
   -1.9566    0.0102    4.2817 H   0  0  0  0  0  0  0  0  0  0  0  0
   -1.7638    1.4757    2.4041 S   0  0  0  0  0  0  0  0  0  0  0  0
   -0.6315    2.4427    3.4078 C   0  0  0  0  0  0  0  0  0  0  0  0
    0.1098    1.8552    3.7344 H   0  0  0  0  0  0  0  0  0  0  0  0
   -0.2502    3.1863    2.8593 H   0  0  0  0  0  0  0  0  0  0  0  0
   -1.1233    2.8247    4.1913 H   0  0  0  0  0  0  0  0  0  0  0  0
  1  5  1  0
  5  8  1  0
  1  2  1  0
  1  3  1  0
  1  4  1  0
  5  6  1  0
  5  7  1  0
  8  9  1  0
  8 10  1  0
  8 11  1  0
 12 16  1  0
 16 17  1  0
 12 13  1  0
 12 14  1  0
 12 15  1  0
 17 18  1  0
 17 19  1  0
 17 20  1  0
M  CHG  1   8   1
M  END
>  <PDB_ID>  (1436) 
pdb3zs7

>  <RESIDUE_NAME>  (1436) 
LYS   MET

>  <FRAG_NAME>  (1436) 
ETAM   MSM

>  <FRAG_ATOM_NUM>  (1436) 
fragi: 11  fragj: 9

>  <atom.prop.CHAIN_ID>  (1436) 
A A A A A A A A A A A Z Z Z Z Z Z Z Z Z

>  <atom.prop.IS_HEAVY_ATOM>  (1436) 
1 0 0 0 1 0 0 1 0 0 0 1 0 0 0 1 1 0 0 0

>  <DIFUSE_FUNC_ATOM>  (1436) 
n/a

>  <FINAL_SINGLE_POINT_ENERGY>  (1436) 
0

>  <NONCOV_INTER_ENERGY_QM>  (1436) 
0

>  <FF_Energy>  (1436) 
35.42

>  <QM_Energy>  (1436) 
9.68

>  <source>  (1436) 
ETAM_MSM

>  <Index>  (1436) 
9142

$$$$
ETAM-pdb4yxq-C-LYS-415:MSM-pdb4yxq-D-MET-199
     RDKit          3D

 20 18  0  0  0  0  0  0  0  0999 V2000
    1.2713    0.8429    0.0000 C   0  0  0  0  0  0  0  0  0  0  0  0
    1.2695    1.4186    0.7950 H   0  0  0  0  0  0  0  0  0  0  0  0
    1.3120    1.3547   -0.8367 H   0  0  0  0  0  0  0  0  0  0  0  0
    2.1317    0.1754    0.0489 H   0  0  0  0  0  0  0  0  0  0  0  0
    0.0000    0.0000    0.0000 C   0  0  0  0  0  0  0  0  0  0  0  0
    0.0148   -0.6061   -0.8165 H   0  0  0  0  0  0  0  0  0  0  0  0
    0.0146   -0.6064    0.8164 H   0  0  0  0  0  0  0  0  0  0  0  0
   -1.2713    0.7766    0.0000 N   0  0  0  0  0  4  0  0  0  0  0  0
   -1.3587    1.2686    0.8655 H   0  0  0  0  0  0  0  0  0  0  0  0
   -1.2604    1.4295   -0.7567 H   0  0  0  0  0  0  0  0  0  0  0  0
   -2.0415    0.1496   -0.1088 H   0  0  0  0  0  0  0  0  0  0  0  0
   -5.0539    2.3411   -3.4923 C   0  0  0  0  0  0  0  0  0  0  0  0
   -5.9916    2.0152   -3.5181 H   0  0  0  0  0  0  0  0  0  0  0  0
   -4.4690    1.7708   -4.0562 H   0  0  0  0  0  0  0  0  0  0  0  0
   -5.0013    3.3810   -3.8146 H   0  0  0  0  0  0  0  0  0  0  0  0
   -4.4418    2.3129   -1.7467 S   0  0  0  0  0  0  0  0  0  0  0  0
   -5.6368    3.3524   -0.9795 C   0  0  0  0  0  0  0  0  0  0  0  0
   -6.5667    3.0120   -1.1598 H   0  0  0  0  0  0  0  0  0  0  0  0
   -5.4939    3.3770    0.0158 H   0  0  0  0  0  0  0  0  0  0  0  0
   -5.5661    4.2907   -1.3348 H   0  0  0  0  0  0  0  0  0  0  0  0
  1  5  1  0
  5  8  1  0
  1  2  1  0
  1  3  1  0
  1  4  1  0
  5  6  1  0
  5  7  1  0
  8  9  1  0
  8 10  1  0
  8 11  1  0
 12 16  1  0
 16 17  1  0
 12 13  1  0
 12 14  1  0
 12 15  1  0
 17 18  1  0
 17 19  1  0
 17 20  1  0
M  CHG  1   8   1
M  END
>  <PDB_ID>  (1437) 
pdb4yxq

>  <RESIDUE_NAME>  (1437) 
LYS   MET

>  <FRAG_NAME>  (1437) 
ETAM   MSM

>  <FRAG_ATOM_NUM>  (1437) 
fragi: 11  fragj: 9

>  <atom.prop.CHAIN_ID>  (1437) 
A A A A A A A A A A A Z Z Z Z Z Z Z Z Z

>  <atom.prop.IS_HEAVY_ATOM>  (1437) 
1 0 0 0 1 0 0 1 0 0 0 1 0 0 0 1 1 0 0 0

>  <DIFUSE_FUNC_ATOM>  (1437) 
n/a

>  <FINAL_SINGLE_POINT_ENERGY>  (1437) 
0

>  <NONCOV_INTER_ENERGY_QM>  (1437) 
0

>  <FF_Energy>  (1437) 
-4.3

>  <QM_Energy>  (1437) 
-9.96

>  <source>  (1437) 
ETAM_MSM

>  <Index>  (1437) 
9144

$$$$
ETAM-pdb3zwf-A-LYS-287:MSM-pdb3zwf-A-MET-283
     RDKit          3D

 20 18  0  0  0  0  0  0  0  0999 V2000
    1.2350    0.8969   -0.0000 C   0  0  0  0  0  0  0  0  0  0  0  0
    1.0786    1.6427    0.6480 H   0  0  0  0  0  0  0  0  0  0  0  0
    1.3471    1.2724   -0.9204 H   0  0  0  0  0  0  0  0  0  0  0  0
    2.1412    0.3610    0.2823 H   0  0  0  0  0  0  0  0  0  0  0  0
    0.0000    0.0000    0.0000 C   0  0  0  0  0  0  0  0  0  0  0  0
    0.0176   -0.5718   -0.8158 H   0  0  0  0  0  0  0  0  0  0  0  0
    0.0174   -0.5722    0.8158 H   0  0  0  0  0  0  0  0  0  0  0  0
   -1.2350    0.8255    0.0000 N   0  0  0  0  0  4  0  0  0  0  0  0
   -1.5311    0.9820    0.9420 H   0  0  0  0  0  0  0  0  0  0  0  0
   -1.0493    1.7031   -0.4415 H   0  0  0  0  0  0  0  0  0  0  0  0
   -1.9561    0.3464   -0.5008 H   0  0  0  0  0  0  0  0  0  0  0  0
   -0.3477   -0.5015    3.6954 C   0  0  0  0  0  0  0  0  0  0  0  0
    0.1093    0.1321    3.0247 H   0  0  0  0  0  0  0  0  0  0  0  0
    0.1901   -1.3780    3.6413 H   0  0  0  0  0  0  0  0  0  0  0  0
   -0.2307   -0.0860    4.6963 H   0  0  0  0  0  0  0  0  0  0  0  0
   -2.0700   -0.7837    3.2305 S   0  0  0  0  0  0  0  0  0  0  0  0
   -2.5393   -2.1101    4.3514 C   0  0  0  0  0  0  0  0  0  0  0  0
   -2.2159   -2.9830    3.9866 H   0  0  0  0  0  0  0  0  0  0  0  0
   -2.1264   -1.9491    5.2476 H   0  0  0  0  0  0  0  0  0  0  0  0
   -3.5347   -2.1333    4.4408 H   0  0  0  0  0  0  0  0  0  0  0  0
  1  5  1  0
  5  8  1  0
  1  2  1  0
  1  3  1  0
  1  4  1  0
  5  6  1  0
  5  7  1  0
  8  9  1  0
  8 10  1  0
  8 11  1  0
 12 16  1  0
 16 17  1  0
 12 13  1  0
 12 14  1  0
 12 15  1  0
 17 18  1  0
 17 19  1  0
 17 20  1  0
M  CHG  1   8   1
M  END
>  <PDB_ID>  (1438) 
pdb3zwf

>  <RESIDUE_NAME>  (1438) 
LYS   MET

>  <FRAG_NAME>  (1438) 
ETAM   MSM

>  <FRAG_ATOM_NUM>  (1438) 
fragi: 11  fragj: 9

>  <atom.prop.CHAIN_ID>  (1438) 
A A A A A A A A A A A Z Z Z Z Z Z Z Z Z

>  <atom.prop.IS_HEAVY_ATOM>  (1438) 
1 0 0 0 1 0 0 1 0 0 0 1 0 0 0 1 1 0 0 0

>  <DIFUSE_FUNC_ATOM>  (1438) 
n/a

>  <FINAL_SINGLE_POINT_ENERGY>  (1438) 
0

>  <NONCOV_INTER_ENERGY_QM>  (1438) 
0

>  <FF_Energy>  (1438) 
-4.62

>  <QM_Energy>  (1438) 
-9.8

>  <source>  (1438) 
ETAM_MSM

>  <Index>  (1438) 
9154

$$$$
ETAM-pdb3zwf-B-LYS-287:MSM-pdb3zwf-B-MET-283
     RDKit          3D

 20 18  0  0  0  0  0  0  0  0999 V2000
    1.2386    0.8937   -0.0000 C   0  0  0  0  0  0  0  0  0  0  0  0
    1.1361    1.5711    0.7217 H   0  0  0  0  0  0  0  0  0  0  0  0
    1.3011    1.3420   -0.8866 H   0  0  0  0  0  0  0  0  0  0  0  0
    2.1493    0.3210    0.1755 H   0  0  0  0  0  0  0  0  0  0  0  0
    0.0000    0.0000    0.0000 C   0  0  0  0  0  0  0  0  0  0  0  0
    0.0215   -0.5766   -0.8162 H   0  0  0  0  0  0  0  0  0  0  0  0
    0.0216   -0.5778    0.8161 H   0  0  0  0  0  0  0  0  0  0  0  0
   -1.2386    0.8121   -0.0000 N   0  0  0  0  0  4  0  0  0  0  0  0
   -1.1720    1.5240   -0.6996 H   0  0  0  0  0  0  0  0  0  0  0  0
   -2.0243    0.2245   -0.1980 H   0  0  0  0  0  0  0  0  0  0  0  0
   -1.3603    1.2382    0.8978 H   0  0  0  0  0  0  0  0  0  0  0  0
   -0.1079   -0.7341    3.7301 C   0  0  0  0  0  0  0  0  0  0  0  0
    0.3984   -0.0725    3.1196 H   0  0  0  0  0  0  0  0  0  0  0  0
    0.3404   -1.6462    3.5498 H   0  0  0  0  0  0  0  0  0  0  0  0
    0.0912   -0.4580    4.7655 H   0  0  0  0  0  0  0  0  0  0  0  0
   -1.8587   -0.7872    3.3004 S   0  0  0  0  0  0  0  0  0  0  0  0
   -2.2939   -2.4250    3.9129 C   0  0  0  0  0  0  0  0  0  0  0  0
   -1.5287   -3.0492    3.7584 H   0  0  0  0  0  0  0  0  0  0  0  0
   -2.4903   -2.3703    4.8911 H   0  0  0  0  0  0  0  0  0  0  0  0
   -3.1008   -2.7562    3.4261 H   0  0  0  0  0  0  0  0  0  0  0  0
  1  5  1  0
  5  8  1  0
  1  2  1  0
  1  3  1  0
  1  4  1  0
  5  6  1  0
  5  7  1  0
  8  9  1  0
  8 10  1  0
  8 11  1  0
 12 16  1  0
 16 17  1  0
 12 13  1  0
 12 14  1  0
 12 15  1  0
 17 18  1  0
 17 19  1  0
 17 20  1  0
M  CHG  1   8   1
M  END
>  <PDB_ID>  (1439) 
pdb3zwf

>  <RESIDUE_NAME>  (1439) 
LYS   MET

>  <FRAG_NAME>  (1439) 
ETAM   MSM

>  <FRAG_ATOM_NUM>  (1439) 
fragi: 11  fragj: 9

>  <atom.prop.CHAIN_ID>  (1439) 
A A A A A A A A A A A Z Z Z Z Z Z Z Z Z

>  <atom.prop.IS_HEAVY_ATOM>  (1439) 
1 0 0 0 1 0 0 1 0 0 0 1 0 0 0 1 1 0 0 0

>  <DIFUSE_FUNC_ATOM>  (1439) 
n/a

>  <FINAL_SINGLE_POINT_ENERGY>  (1439) 
0

>  <NONCOV_INTER_ENERGY_QM>  (1439) 
0

>  <FF_Energy>  (1439) 
-4.64

>  <QM_Energy>  (1439) 
-10.43

>  <source>  (1439) 
ETAM_MSM

>  <Index>  (1439) 
9155

$$$$
ETAM-pdb4zah-A-LYS-296:MSM-pdb4zah-A-MET-105
     RDKit          3D

 20 18  0  0  0  0  0  0  0  0999 V2000
    1.1828    0.9202   -0.0000 C   0  0  0  0  0  0  0  0  0  0  0  0
    1.0831    1.5582    0.7668 H   0  0  0  0  0  0  0  0  0  0  0  0
    1.1759    1.4384   -0.8588 H   0  0  0  0  0  0  0  0  0  0  0  0
    2.1161    0.3654    0.0954 H   0  0  0  0  0  0  0  0  0  0  0  0
    0.0000    0.0000    0.0000 C   0  0  0  0  0  0  0  0  0  0  0  0
   -0.0064   -0.5356   -0.8159 H   0  0  0  0  0  0  0  0  0  0  0  0
   -0.0062   -0.5362    0.8165 H   0  0  0  0  0  0  0  0  0  0  0  0
   -1.1828    0.9098   -0.0000 N   0  0  0  0  0  4  0  0  0  0  0  0
   -1.1804    1.4527   -0.8383 H   0  0  0  0  0  0  0  0  0  0  0  0
   -2.0188    0.3641    0.0456 H   0  0  0  0  0  0  0  0  0  0  0  0
   -1.1331    1.5149    0.7930 H   0  0  0  0  0  0  0  0  0  0  0  0
   -3.2763   -2.6928   -0.3934 C   0  0  0  0  0  0  0  0  0  0  0  0
   -3.1034   -2.3042    0.5432 H   0  0  0  0  0  0  0  0  0  0  0  0
   -2.5088   -3.3580   -0.5527 H   0  0  0  0  0  0  0  0  0  0  0  0
   -4.2153   -3.2459   -0.3702 H   0  0  0  0  0  0  0  0  0  0  0  0
   -3.2242   -1.3585   -1.6490 S   0  0  0  0  0  0  0  0  0  0  0  0
   -3.1260   -2.2853   -3.1973 C   0  0  0  0  0  0  0  0  0  0  0  0
   -3.8463   -2.9768   -3.2117 H   0  0  0  0  0  0  0  0  0  0  0  0
   -3.2459   -1.6565   -3.9640 H   0  0  0  0  0  0  0  0  0  0  0  0
   -2.2326   -2.7271   -3.2583 H   0  0  0  0  0  0  0  0  0  0  0  0
  1  5  1  0
  5  8  1  0
  1  2  1  0
  1  3  1  0
  1  4  1  0
  5  6  1  0
  5  7  1  0
  8  9  1  0
  8 10  1  0
  8 11  1  0
 12 16  1  0
 16 17  1  0
 12 13  1  0
 12 14  1  0
 12 15  1  0
 17 18  1  0
 17 19  1  0
 17 20  1  0
M  CHG  1   8   1
M  END
>  <PDB_ID>  (1440) 
pdb4zah

>  <RESIDUE_NAME>  (1440) 
LYS   MET

>  <FRAG_NAME>  (1440) 
ETAM   MSM

>  <FRAG_ATOM_NUM>  (1440) 
fragi: 11  fragj: 9

>  <atom.prop.CHAIN_ID>  (1440) 
A A A A A A A A A A A Z Z Z Z Z Z Z Z Z

>  <atom.prop.IS_HEAVY_ATOM>  (1440) 
1 0 0 0 1 0 0 1 0 0 0 1 0 0 0 1 1 0 0 0

>  <DIFUSE_FUNC_ATOM>  (1440) 
n/a

>  <FINAL_SINGLE_POINT_ENERGY>  (1440) 
0

>  <NONCOV_INTER_ENERGY_QM>  (1440) 
0

>  <FF_Energy>  (1440) 
-5.3

>  <QM_Energy>  (1440) 
-12.52

>  <source>  (1440) 
ETAM_MSM

>  <Index>  (1440) 
9187

$$$$
ETAM-pdb4zah-B-LYS-296:MSM-pdb4zah-B-MET-105
     RDKit          3D

 20 18  0  0  0  0  0  0  0  0999 V2000
    1.1613    0.9588   -0.0000 C   0  0  0  0  0  0  0  0  0  0  0  0
    1.0477    1.5908    0.7667 H   0  0  0  0  0  0  0  0  0  0  0  0
    1.1473    1.4698   -0.8592 H   0  0  0  0  0  0  0  0  0  0  0  0
    2.1099    0.4310    0.0980 H   0  0  0  0  0  0  0  0  0  0  0  0
    0.0000    0.0000    0.0000 C   0  0  0  0  0  0  0  0  0  0  0  0
    0.0221   -0.5332   -0.8164 H   0  0  0  0  0  0  0  0  0  0  0  0
    0.0225   -0.5332    0.8166 H   0  0  0  0  0  0  0  0  0  0  0  0
   -1.1613    0.8800   -0.0000 N   0  0  0  0  0  4  0  0  0  0  0  0
   -1.2245    1.3717    0.8739 H   0  0  0  0  0  0  0  0  0  0  0  0
   -1.0873    1.5516   -0.7435 H   0  0  0  0  0  0  0  0  0  0  0  0
   -2.0021    0.3454   -0.1311 H   0  0  0  0  0  0  0  0  0  0  0  0
   -2.9605   -2.9391   -0.5676 C   0  0  0  0  0  0  0  0  0  0  0  0
   -2.8824   -2.5582    0.3826 H   0  0  0  0  0  0  0  0  0  0  0  0
   -2.1110   -3.5007   -0.7040 H   0  0  0  0  0  0  0  0  0  0  0  0
   -3.8277   -3.5980   -0.6104 H   0  0  0  0  0  0  0  0  0  0  0  0
   -3.0222   -1.5869   -1.7847 S   0  0  0  0  0  0  0  0  0  0  0  0
   -2.7160   -2.5274   -3.2800 C   0  0  0  0  0  0  0  0  0  0  0  0
   -3.5229   -3.0775   -3.5013 H   0  0  0  0  0  0  0  0  0  0  0  0
   -2.5245   -1.9007   -4.0366 H   0  0  0  0  0  0  0  0  0  0  0  0
   -1.9297   -3.1312   -3.1410 H   0  0  0  0  0  0  0  0  0  0  0  0
  1  5  1  0
  5  8  1  0
  1  2  1  0
  1  3  1  0
  1  4  1  0
  5  6  1  0
  5  7  1  0
  8  9  1  0
  8 10  1  0
  8 11  1  0
 12 16  1  0
 16 17  1  0
 12 13  1  0
 12 14  1  0
 12 15  1  0
 17 18  1  0
 17 19  1  0
 17 20  1  0
M  CHG  1   8   1
M  END
>  <PDB_ID>  (1441) 
pdb4zah

>  <RESIDUE_NAME>  (1441) 
LYS   MET

>  <FRAG_NAME>  (1441) 
ETAM   MSM

>  <FRAG_ATOM_NUM>  (1441) 
fragi: 11  fragj: 9

>  <atom.prop.CHAIN_ID>  (1441) 
A A A A A A A A A A A Z Z Z Z Z Z Z Z Z

>  <atom.prop.IS_HEAVY_ATOM>  (1441) 
1 0 0 0 1 0 0 1 0 0 0 1 0 0 0 1 1 0 0 0

>  <DIFUSE_FUNC_ATOM>  (1441) 
n/a

>  <FINAL_SINGLE_POINT_ENERGY>  (1441) 
0

>  <NONCOV_INTER_ENERGY_QM>  (1441) 
0

>  <FF_Energy>  (1441) 
-5.26

>  <QM_Energy>  (1441) 
-12.42

>  <source>  (1441) 
ETAM_MSM

>  <Index>  (1441) 
9191

$$$$
ETAM-pdb4zah-C-LYS-296:MSM-pdb4zah-C-MET-105
     RDKit          3D

 20 18  0  0  0  0  0  0  0  0999 V2000
    1.1933    0.9254   -0.0000 C   0  0  0  0  0  0  0  0  0  0  0  0
    1.0871    1.5674    0.7674 H   0  0  0  0  0  0  0  0  0  0  0  0
    1.1769    1.4505   -0.8590 H   0  0  0  0  0  0  0  0  0  0  0  0
    2.1398    0.3927    0.0916 H   0  0  0  0  0  0  0  0  0  0  0  0
    0.0000    0.0000    0.0000 C   0  0  0  0  0  0  0  0  0  0  0  0
    0.0003   -0.5375   -0.8163 H   0  0  0  0  0  0  0  0  0  0  0  0
    0.0001   -0.5386    0.8162 H   0  0  0  0  0  0  0  0  0  0  0  0
   -1.1933    0.8985   -0.0000 N   0  0  0  0  0  4  0  0  0  0  0  0
   -0.9946    1.7085    0.5493 H   0  0  0  0  0  0  0  0  0  0  0  0
   -1.4003    1.1705   -0.9387 H   0  0  0  0  0  0  0  0  0  0  0  0
   -1.9723    0.4099    0.3891 H   0  0  0  0  0  0  0  0  0  0  0  0
   -3.0876   -2.7929   -0.4446 C   0  0  0  0  0  0  0  0  0  0  0  0
   -2.9466   -2.4026    0.4832 H   0  0  0  0  0  0  0  0  0  0  0  0
   -2.2983   -3.4073   -0.6279 H   0  0  0  0  0  0  0  0  0  0  0  0
   -4.0039   -3.3831   -0.4442 H   0  0  0  0  0  0  0  0  0  0  0  0
   -3.1720   -1.4786   -1.6824 S   0  0  0  0  0  0  0  0  0  0  0  0
   -3.0342   -2.4288   -3.1973 C   0  0  0  0  0  0  0  0  0  0  0  0
   -3.7861   -3.0875   -3.2490 H   0  0  0  0  0  0  0  0  0  0  0  0
   -3.0780   -1.8122   -3.9843 H   0  0  0  0  0  0  0  0  0  0  0  0
   -2.1619   -2.9189   -3.2068 H   0  0  0  0  0  0  0  0  0  0  0  0
  1  5  1  0
  5  8  1  0
  1  2  1  0
  1  3  1  0
  1  4  1  0
  5  6  1  0
  5  7  1  0
  8  9  1  0
  8 10  1  0
  8 11  1  0
 12 16  1  0
 16 17  1  0
 12 13  1  0
 12 14  1  0
 12 15  1  0
 17 18  1  0
 17 19  1  0
 17 20  1  0
M  CHG  1   8   1
M  END
>  <PDB_ID>  (1442) 
pdb4zah

>  <RESIDUE_NAME>  (1442) 
LYS   MET

>  <FRAG_NAME>  (1442) 
ETAM   MSM

>  <FRAG_ATOM_NUM>  (1442) 
fragi: 11  fragj: 9

>  <atom.prop.CHAIN_ID>  (1442) 
A A A A A A A A A A A Z Z Z Z Z Z Z Z Z

>  <atom.prop.IS_HEAVY_ATOM>  (1442) 
1 0 0 0 1 0 0 1 0 0 0 1 0 0 0 1 1 0 0 0

>  <DIFUSE_FUNC_ATOM>  (1442) 
n/a

>  <FINAL_SINGLE_POINT_ENERGY>  (1442) 
0

>  <NONCOV_INTER_ENERGY_QM>  (1442) 
0

>  <FF_Energy>  (1442) 
-5.1

>  <QM_Energy>  (1442) 
-11.6

>  <source>  (1442) 
ETAM_MSM

>  <Index>  (1442) 
9192

$$$$
ETAM-pdb4zah-D-LYS-296:MSM-pdb4zah-D-MET-105
     RDKit          3D

 20 18  0  0  0  0  0  0  0  0999 V2000
    1.2166    0.9156    0.0000 C   0  0  0  0  0  0  0  0  0  0  0  0
    1.1343    1.5393    0.7689 H   0  0  0  0  0  0  0  0  0  0  0  0
    1.2263    1.4167   -0.8576 H   0  0  0  0  0  0  0  0  0  0  0  0
    2.1316    0.3311    0.0960 H   0  0  0  0  0  0  0  0  0  0  0  0
    0.0000    0.0000    0.0000 C   0  0  0  0  0  0  0  0  0  0  0  0
    0.0273   -0.5663   -0.8161 H   0  0  0  0  0  0  0  0  0  0  0  0
    0.0275   -0.5671    0.8163 H   0  0  0  0  0  0  0  0  0  0  0  0
   -1.2166    0.8208    0.0000 N   0  0  0  0  0  4  0  0  0  0  0  0
   -1.8136    0.5481    0.7586 H   0  0  0  0  0  0  0  0  0  0  0  0
   -0.9762    1.7892    0.1057 H   0  0  0  0  0  0  0  0  0  0  0  0
   -1.7105    0.6997   -0.8639 H   0  0  0  0  0  0  0  0  0  0  0  0
   -3.0435   -2.7875   -0.3132 C   0  0  0  0  0  0  0  0  0  0  0  0
   -2.9251   -2.4036    0.6363 H   0  0  0  0  0  0  0  0  0  0  0  0
   -2.2377   -3.4187   -0.4413 H   0  0  0  0  0  0  0  0  0  0  0  0
   -3.9522   -3.3894   -0.3243 H   0  0  0  0  0  0  0  0  0  0  0  0
   -3.0095   -1.4543   -1.5484 S   0  0  0  0  0  0  0  0  0  0  0  0
   -2.7953   -2.4180   -3.0453 C   0  0  0  0  0  0  0  0  0  0  0  0
   -2.4312   -3.3210   -2.8127 H   0  0  0  0  0  0  0  0  0  0  0  0
   -3.6776   -2.5235   -3.5052 H   0  0  0  0  0  0  0  0  0  0  0  0
   -2.1564   -1.9494   -3.6569 H   0  0  0  0  0  0  0  0  0  0  0  0
  1  5  1  0
  5  8  1  0
  1  2  1  0
  1  3  1  0
  1  4  1  0
  5  6  1  0
  5  7  1  0
  8  9  1  0
  8 10  1  0
  8 11  1  0
 12 16  1  0
 16 17  1  0
 12 13  1  0
 12 14  1  0
 12 15  1  0
 17 18  1  0
 17 19  1  0
 17 20  1  0
M  CHG  1   8   1
M  END
>  <PDB_ID>  (1443) 
pdb4zah

>  <RESIDUE_NAME>  (1443) 
LYS   MET

>  <FRAG_NAME>  (1443) 
ETAM   MSM

>  <FRAG_ATOM_NUM>  (1443) 
fragi: 11  fragj: 9

>  <atom.prop.CHAIN_ID>  (1443) 
A A A A A A A A A A A Z Z Z Z Z Z Z Z Z

>  <atom.prop.IS_HEAVY_ATOM>  (1443) 
1 0 0 0 1 0 0 1 0 0 0 1 0 0 0 1 1 0 0 0

>  <DIFUSE_FUNC_ATOM>  (1443) 
n/a

>  <FINAL_SINGLE_POINT_ENERGY>  (1443) 
0

>  <NONCOV_INTER_ENERGY_QM>  (1443) 
0

>  <FF_Energy>  (1443) 
-5.29

>  <QM_Energy>  (1443) 
-13.72

>  <source>  (1443) 
ETAM_MSM

>  <Index>  (1443) 
9193

$$$$
ETAM-pdb4zah-E-LYS-296:MSM-pdb4zah-E-MET-105
     RDKit          3D

 20 18  0  0  0  0  0  0  0  0999 V2000
    1.2366    0.8799   -0.0000 C   0  0  0  0  0  0  0  0  0  0  0  0
    1.1806    1.4964    0.7738 H   0  0  0  0  0  0  0  0  0  0  0  0
    1.2622    1.3813   -0.8533 H   0  0  0  0  0  0  0  0  0  0  0  0
    2.1280    0.2590    0.0891 H   0  0  0  0  0  0  0  0  0  0  0  0
    0.0000    0.0000    0.0000 C   0  0  0  0  0  0  0  0  0  0  0  0
    0.0130   -0.5790   -0.8164 H   0  0  0  0  0  0  0  0  0  0  0  0
    0.0119   -0.5792    0.8164 H   0  0  0  0  0  0  0  0  0  0  0  0
   -1.2366    0.8209   -0.0000 N   0  0  0  0  0  4  0  0  0  0  0  0
   -1.8602    0.4851    0.7063 H   0  0  0  0  0  0  0  0  0  0  0  0
   -1.0033    1.7754    0.1877 H   0  0  0  0  0  0  0  0  0  0  0  0
   -1.6806    0.7560   -0.8946 H   0  0  0  0  0  0  0  0  0  0  0  0
   -3.5881   -1.9757   -0.2895 C   0  0  0  0  0  0  0  0  0  0  0  0
   -3.3507   -1.6556    0.6527 H   0  0  0  0  0  0  0  0  0  0  0  0
   -2.9426   -2.7435   -0.4946 H   0  0  0  0  0  0  0  0  0  0  0  0
   -4.6067   -2.3638   -0.2828 H   0  0  0  0  0  0  0  0  0  0  0  0
   -3.4006   -0.6528   -1.4770 S   0  0  0  0  0  0  0  0  0  0  0  0
   -3.5012   -1.5413   -3.0259 C   0  0  0  0  0  0  0  0  0  0  0  0
   -2.6071   -1.5334   -3.4774 H   0  0  0  0  0  0  0  0  0  0  0  0
   -3.7763   -2.4885   -2.8537 H   0  0  0  0  0  0  0  0  0  0  0  0
   -4.1771   -1.1034   -3.6221 H   0  0  0  0  0  0  0  0  0  0  0  0
  1  5  1  0
  5  8  1  0
  1  2  1  0
  1  3  1  0
  1  4  1  0
  5  6  1  0
  5  7  1  0
  8  9  1  0
  8 10  1  0
  8 11  1  0
 12 16  1  0
 16 17  1  0
 12 13  1  0
 12 14  1  0
 12 15  1  0
 17 18  1  0
 17 19  1  0
 17 20  1  0
M  CHG  1   8   1
M  END
>  <PDB_ID>  (1444) 
pdb4zah

>  <RESIDUE_NAME>  (1444) 
LYS   MET

>  <FRAG_NAME>  (1444) 
ETAM   MSM

>  <FRAG_ATOM_NUM>  (1444) 
fragi: 11  fragj: 9

>  <atom.prop.CHAIN_ID>  (1444) 
A A A A A A A A A A A Z Z Z Z Z Z Z Z Z

>  <atom.prop.IS_HEAVY_ATOM>  (1444) 
1 0 0 0 1 0 0 1 0 0 0 1 0 0 0 1 1 0 0 0

>  <DIFUSE_FUNC_ATOM>  (1444) 
n/a

>  <FINAL_SINGLE_POINT_ENERGY>  (1444) 
0

>  <NONCOV_INTER_ENERGY_QM>  (1444) 
0

>  <FF_Energy>  (1444) 
-3.38

>  <QM_Energy>  (1444) 
-13.2

>  <source>  (1444) 
ETAM_MSM

>  <Index>  (1444) 
9194

$$$$
ETAM-pdb4zah-F-LYS-296:MSM-pdb4zah-F-MET-105
     RDKit          3D

 20 18  0  0  0  0  0  0  0  0999 V2000
    1.2248    0.8830   -0.0000 C   0  0  0  0  0  0  0  0  0  0  0  0
    1.1663    1.5044    0.7716 H   0  0  0  0  0  0  0  0  0  0  0  0
    1.2520    1.3856   -0.8555 H   0  0  0  0  0  0  0  0  0  0  0  0
    2.1229    0.2723    0.0929 H   0  0  0  0  0  0  0  0  0  0  0  0
    0.0000    0.0000    0.0000 C   0  0  0  0  0  0  0  0  0  0  0  0
    0.0115   -0.5754   -0.8165 H   0  0  0  0  0  0  0  0  0  0  0  0
    0.0104   -0.5756    0.8167 H   0  0  0  0  0  0  0  0  0  0  0  0
   -1.2248    0.8284   -0.0000 N   0  0  0  0  0  4  0  0  0  0  0  0
   -1.9153    0.4084   -0.5908 H   0  0  0  0  0  0  0  0  0  0  0  0
   -1.5845    0.8974    0.9321 H   0  0  0  0  0  0  0  0  0  0  0  0
   -1.0109    1.7450   -0.3408 H   0  0  0  0  0  0  0  0  0  0  0  0
   -3.2077   -2.2797   -0.7232 C   0  0  0  0  0  0  0  0  0  0  0  0
   -3.0824   -1.9286    0.2223 H   0  0  0  0  0  0  0  0  0  0  0  0
   -2.4521   -2.9383   -0.8949 H   0  0  0  0  0  0  0  0  0  0  0  0
   -4.1627   -2.8007   -0.7900 H   0  0  0  0  0  0  0  0  0  0  0  0
   -3.1470   -0.9251   -1.9133 S   0  0  0  0  0  0  0  0  0  0  0  0
   -3.0061   -1.8578   -3.4379 C   0  0  0  0  0  0  0  0  0  0  0  0
   -2.0747   -1.7765   -3.7958 H   0  0  0  0  0  0  0  0  0  0  0  0
   -3.2114   -2.8214   -3.2617 H   0  0  0  0  0  0  0  0  0  0  0  0
   -3.6532   -1.4986   -4.1121 H   0  0  0  0  0  0  0  0  0  0  0  0
  1  5  1  0
  5  8  1  0
  1  2  1  0
  1  3  1  0
  1  4  1  0
  5  6  1  0
  5  7  1  0
  8  9  1  0
  8 10  1  0
  8 11  1  0
 12 16  1  0
 16 17  1  0
 12 13  1  0
 12 14  1  0
 12 15  1  0
 17 18  1  0
 17 19  1  0
 17 20  1  0
M  CHG  1   8   1
M  END
>  <PDB_ID>  (1445) 
pdb4zah

>  <RESIDUE_NAME>  (1445) 
LYS   MET

>  <FRAG_NAME>  (1445) 
ETAM   MSM

>  <FRAG_ATOM_NUM>  (1445) 
fragi: 11  fragj: 9

>  <atom.prop.CHAIN_ID>  (1445) 
A A A A A A A A A A A Z Z Z Z Z Z Z Z Z

>  <atom.prop.IS_HEAVY_ATOM>  (1445) 
1 0 0 0 1 0 0 1 0 0 0 1 0 0 0 1 1 0 0 0

>  <DIFUSE_FUNC_ATOM>  (1445) 
n/a

>  <FINAL_SINGLE_POINT_ENERGY>  (1445) 
0

>  <NONCOV_INTER_ENERGY_QM>  (1445) 
0

>  <FF_Energy>  (1445) 
-5.38

>  <QM_Energy>  (1445) 
-15.23

>  <source>  (1445) 
ETAM_MSM

>  <Index>  (1445) 
9195

$$$$
ETAM-pdb4zah-G-LYS-296:MSM-pdb4zah-G-MET-105
     RDKit          3D

 20 18  0  0  0  0  0  0  0  0999 V2000
    1.2241    0.8779   -0.0000 C   0  0  0  0  0  0  0  0  0  0  0  0
    1.1675    1.4973    0.7741 H   0  0  0  0  0  0  0  0  0  0  0  0
    1.2492    1.3834   -0.8541 H   0  0  0  0  0  0  0  0  0  0  0  0
    2.1174    0.2598    0.0884 H   0  0  0  0  0  0  0  0  0  0  0  0
    0.0000    0.0000    0.0000 C   0  0  0  0  0  0  0  0  0  0  0  0
    0.0118   -0.5798   -0.8159 H   0  0  0  0  0  0  0  0  0  0  0  0
    0.0122   -0.5799    0.8167 H   0  0  0  0  0  0  0  0  0  0  0  0
   -1.2241    0.8209    0.0000 N   0  0  0  0  0  4  0  0  0  0  0  0
   -2.0236    0.2370    0.1551 H   0  0  0  0  0  0  0  0  0  0  0  0
   -1.1718    1.5081    0.7275 H   0  0  0  0  0  0  0  0  0  0  0  0
   -1.3212    1.2842   -0.8836 H   0  0  0  0  0  0  0  0  0  0  0  0
   -3.4629   -2.2761   -0.2724 C   0  0  0  0  0  0  0  0  0  0  0  0
   -3.2397   -1.9266    0.6681 H   0  0  0  0  0  0  0  0  0  0  0  0
   -2.7310   -2.9661   -0.4833 H   0  0  0  0  0  0  0  0  0  0  0  0
   -4.4235   -2.7896   -0.2317 H   0  0  0  0  0  0  0  0  0  0  0  0
   -3.4190   -0.9185   -1.4799 S   0  0  0  0  0  0  0  0  0  0  0  0
   -3.4238   -1.8370   -3.0195 C   0  0  0  0  0  0  0  0  0  0  0  0
   -4.3472   -2.1743   -3.2054 H   0  0  0  0  0  0  0  0  0  0  0  0
   -3.1317   -1.2391   -3.7670 H   0  0  0  0  0  0  0  0  0  0  0  0
   -2.7947   -2.6127   -2.9487 H   0  0  0  0  0  0  0  0  0  0  0  0
  1  5  1  0
  5  8  1  0
  1  2  1  0
  1  3  1  0
  1  4  1  0
  5  6  1  0
  5  7  1  0
  8  9  1  0
  8 10  1  0
  8 11  1  0
 12 16  1  0
 16 17  1  0
 12 13  1  0
 12 14  1  0
 12 15  1  0
 17 18  1  0
 17 19  1  0
 17 20  1  0
M  CHG  1   8   1
M  END
>  <PDB_ID>  (1446) 
pdb4zah

>  <RESIDUE_NAME>  (1446) 
LYS   MET

>  <FRAG_NAME>  (1446) 
ETAM   MSM

>  <FRAG_ATOM_NUM>  (1446) 
fragi: 11  fragj: 9

>  <atom.prop.CHAIN_ID>  (1446) 
A A A A A A A A A A A Z Z Z Z Z Z Z Z Z

>  <atom.prop.IS_HEAVY_ATOM>  (1446) 
1 0 0 0 1 0 0 1 0 0 0 1 0 0 0 1 1 0 0 0

>  <DIFUSE_FUNC_ATOM>  (1446) 
n/a

>  <FINAL_SINGLE_POINT_ENERGY>  (1446) 
0

>  <NONCOV_INTER_ENERGY_QM>  (1446) 
0

>  <FF_Energy>  (1446) 
-4.87

>  <QM_Energy>  (1446) 
-12.48

>  <source>  (1446) 
ETAM_MSM

>  <Index>  (1446) 
9196

$$$$
ETAM-pdb4zah-H-LYS-296:MSM-pdb4zah-H-MET-105
     RDKit          3D

 20 18  0  0  0  0  0  0  0  0999 V2000
    1.2539    0.8710   -0.0000 C   0  0  0  0  0  0  0  0  0  0  0  0
    1.1915    1.5022    0.7695 H   0  0  0  0  0  0  0  0  0  0  0  0
    1.2761    1.3794   -0.8578 H   0  0  0  0  0  0  0  0  0  0  0  0
    2.1590    0.2709    0.0934 H   0  0  0  0  0  0  0  0  0  0  0  0
    0.0000    0.0000    0.0000 C   0  0  0  0  0  0  0  0  0  0  0  0
    0.0094   -0.5827   -0.8162 H   0  0  0  0  0  0  0  0  0  0  0  0
    0.0095   -0.5827    0.8167 H   0  0  0  0  0  0  0  0  0  0  0  0
   -1.2539    0.8190   -0.0000 N   0  0  0  0  0  4  0  0  0  0  0  0
   -1.3719    1.2363   -0.8989 H   0  0  0  0  0  0  0  0  0  0  0  0
   -2.0314    0.2262    0.2026 H   0  0  0  0  0  0  0  0  0  0  0  0
   -1.1798    1.5298    0.6959 H   0  0  0  0  0  0  0  0  0  0  0  0
   -3.1627   -2.5372   -0.7259 C   0  0  0  0  0  0  0  0  0  0  0  0
   -2.9701   -2.2159    0.2228 H   0  0  0  0  0  0  0  0  0  0  0  0
   -2.4028   -3.1725   -0.9726 H   0  0  0  0  0  0  0  0  0  0  0  0
   -4.1000   -3.0938   -0.7242 H   0  0  0  0  0  0  0  0  0  0  0  0
   -3.2191   -1.1370   -1.8718 S   0  0  0  0  0  0  0  0  0  0  0  0
   -3.1948   -1.9731   -3.4489 C   0  0  0  0  0  0  0  0  0  0  0  0
   -2.3268   -2.4609   -3.5600 H   0  0  0  0  0  0  0  0  0  0  0  0
   -3.9498   -2.6298   -3.4956 H   0  0  0  0  0  0  0  0  0  0  0  0
   -3.2940   -1.3043   -4.1885 H   0  0  0  0  0  0  0  0  0  0  0  0
  1  5  1  0
  5  8  1  0
  1  2  1  0
  1  3  1  0
  1  4  1  0
  5  6  1  0
  5  7  1  0
  8  9  1  0
  8 10  1  0
  8 11  1  0
 12 16  1  0
 16 17  1  0
 12 13  1  0
 12 14  1  0
 12 15  1  0
 17 18  1  0
 17 19  1  0
 17 20  1  0
M  CHG  1   8   1
M  END
>  <PDB_ID>  (1447) 
pdb4zah

>  <RESIDUE_NAME>  (1447) 
LYS   MET

>  <FRAG_NAME>  (1447) 
ETAM   MSM

>  <FRAG_ATOM_NUM>  (1447) 
fragi: 11  fragj: 9

>  <atom.prop.CHAIN_ID>  (1447) 
A A A A A A A A A A A Z Z Z Z Z Z Z Z Z

>  <atom.prop.IS_HEAVY_ATOM>  (1447) 
1 0 0 0 1 0 0 1 0 0 0 1 0 0 0 1 1 0 0 0

>  <DIFUSE_FUNC_ATOM>  (1447) 
n/a

>  <FINAL_SINGLE_POINT_ENERGY>  (1447) 
0

>  <NONCOV_INTER_ENERGY_QM>  (1447) 
0

>  <FF_Energy>  (1447) 
-5.15

>  <QM_Energy>  (1447) 
-11.96

>  <source>  (1447) 
ETAM_MSM

>  <Index>  (1447) 
9197

$$$$
ETAM-pdb4zi6-A-LYS-270:MSM-pdb4zi6-A-MET-278
     RDKit          3D

 20 18  0  0  0  0  0  0  0  0999 V2000
    1.2402    0.8670   -0.0000 C   0  0  0  0  0  0  0  0  0  0  0  0
    2.0437    0.2806    0.0309 H   0  0  0  0  0  0  0  0  0  0  0  0
    1.2171    1.4625    0.7966 H   0  0  0  0  0  0  0  0  0  0  0  0
    1.2974    1.4858   -0.8955 H   0  0  0  0  0  0  0  0  0  0  0  0
    0.0000    0.0000    0.0000 C   0  0  0  0  0  0  0  0  0  0  0  0
    0.0093   -0.5852   -0.8165 H   0  0  0  0  0  0  0  0  0  0  0  0
    0.0094   -0.5853    0.8170 H   0  0  0  0  0  0  0  0  0  0  0  0
   -1.2402    0.8156   -0.0000 N   0  0  0  0  0  4  0  0  0  0  0  0
   -1.0804    1.6658    0.5017 H   0  0  0  0  0  0  0  0  0  0  0  0
   -1.4995    1.0279   -0.9426 H   0  0  0  0  0  0  0  0  0  0  0  0
   -1.9769    0.3017    0.4409 H   0  0  0  0  0  0  0  0  0  0  0  0
    1.4900   -0.8095    3.6156 C   0  0  0  0  0  0  0  0  0  0  0  0
    1.8896   -0.0255    4.1409 H   0  0  0  0  0  0  0  0  0  0  0  0
    1.8042   -0.6819    2.6481 H   0  0  0  0  0  0  0  0  0  0  0  0
    1.9172   -1.7359    3.9995 H   0  0  0  0  0  0  0  0  0  0  0  0
   -0.3229   -0.7769    3.7053 S   0  0  0  0  0  0  0  0  0  0  0  0
   -0.5701    0.2659    5.1530 C   0  0  0  0  0  0  0  0  0  0  0  0
   -0.4300   -0.2776    5.9793 H   0  0  0  0  0  0  0  0  0  0  0  0
    0.0847    1.0211    5.1328 H   0  0  0  0  0  0  0  0  0  0  0  0
   -1.5018    0.6288    5.1438 H   0  0  0  0  0  0  0  0  0  0  0  0
  1  5  1  0
  5  8  1  0
  1  2  1  0
  1  3  1  0
  1  4  1  0
  5  6  1  0
  5  7  1  0
  8  9  1  0
  8 10  1  0
  8 11  1  0
 12 16  1  0
 16 17  1  0
 12 13  1  0
 12 14  1  0
 12 15  1  0
 17 18  1  0
 17 19  1  0
 17 20  1  0
M  CHG  1   8   1
M  END
>  <PDB_ID>  (1448) 
pdb4zi6

>  <RESIDUE_NAME>  (1448) 
LYS   MET

>  <FRAG_NAME>  (1448) 
ETAM   MSM

>  <FRAG_ATOM_NUM>  (1448) 
fragi: 11  fragj: 9

>  <atom.prop.CHAIN_ID>  (1448) 
A A A A A A A A A A A Z Z Z Z Z Z Z Z Z

>  <atom.prop.IS_HEAVY_ATOM>  (1448) 
1 0 0 0 1 0 0 1 0 0 0 1 0 0 0 1 1 0 0 0

>  <DIFUSE_FUNC_ATOM>  (1448) 
n/a

>  <FINAL_SINGLE_POINT_ENERGY>  (1448) 
0

>  <NONCOV_INTER_ENERGY_QM>  (1448) 
0

>  <FF_Energy>  (1448) 
-4.09

>  <QM_Energy>  (1448) 
-9.28

>  <source>  (1448) 
ETAM_MSM

>  <Index>  (1448) 
9208

$$$$
ETAM-pdb4zi6-D-LYS-270:MSM-pdb4zi6-D-MET-278
     RDKit          3D

 20 18  0  0  0  0  0  0  0  0999 V2000
    1.2506    0.8827    0.0000 C   0  0  0  0  0  0  0  0  0  0  0  0
    2.0257    0.3308    0.2895 H   0  0  0  0  0  0  0  0  0  0  0  0
    1.1051    1.6344    0.6352 H   0  0  0  0  0  0  0  0  0  0  0  0
    1.4612    1.2925   -0.9879 H   0  0  0  0  0  0  0  0  0  0  0  0
    0.0000    0.0000    0.0000 C   0  0  0  0  0  0  0  0  0  0  0  0
    0.0233   -0.5863   -0.8162 H   0  0  0  0  0  0  0  0  0  0  0  0
    0.0229   -0.5861    0.8165 H   0  0  0  0  0  0  0  0  0  0  0  0
   -1.2506    0.7969   -0.0000 N   0  0  0  0  0  4  0  0  0  0  0  0
   -1.6537    0.7861   -0.9150 H   0  0  0  0  0  0  0  0  0  0  0  0
   -1.8980    0.4037    0.6538 H   0  0  0  0  0  0  0  0  0  0  0  0
   -1.0457    1.7407    0.2620 H   0  0  0  0  0  0  0  0  0  0  0  0
    1.0345   -0.7701    3.5379 C   0  0  0  0  0  0  0  0  0  0  0  0
    1.5193   -0.0081    4.0245 H   0  0  0  0  0  0  0  0  0  0  0  0
    1.4118   -0.7664    2.5828 H   0  0  0  0  0  0  0  0  0  0  0  0
    1.3176   -1.7099    4.0120 H   0  0  0  0  0  0  0  0  0  0  0  0
   -0.7600   -0.4789    3.5185 S   0  0  0  0  0  0  0  0  0  0  0  0
   -0.9573    0.6681    4.8805 C   0  0  0  0  0  0  0  0  0  0  0  0
   -1.9318    0.8261    5.0476 H   0  0  0  0  0  0  0  0  0  0  0  0
   -0.5376    0.2862    5.7047 H   0  0  0  0  0  0  0  0  0  0  0  0
   -0.5140    1.5371    4.6546 H   0  0  0  0  0  0  0  0  0  0  0  0
  1  5  1  0
  5  8  1  0
  1  2  1  0
  1  3  1  0
  1  4  1  0
  5  6  1  0
  5  7  1  0
  8  9  1  0
  8 10  1  0
  8 11  1  0
 12 16  1  0
 16 17  1  0
 12 13  1  0
 12 14  1  0
 12 15  1  0
 17 18  1  0
 17 19  1  0
 17 20  1  0
M  CHG  1   8   1
M  END
>  <PDB_ID>  (1449) 
pdb4zi6

>  <RESIDUE_NAME>  (1449) 
LYS   MET

>  <FRAG_NAME>  (1449) 
ETAM   MSM

>  <FRAG_ATOM_NUM>  (1449) 
fragi: 11  fragj: 9

>  <atom.prop.CHAIN_ID>  (1449) 
A A A A A A A A A A A Z Z Z Z Z Z Z Z Z

>  <atom.prop.IS_HEAVY_ATOM>  (1449) 
1 0 0 0 1 0 0 1 0 0 0 1 0 0 0 1 1 0 0 0

>  <DIFUSE_FUNC_ATOM>  (1449) 
n/a

>  <FINAL_SINGLE_POINT_ENERGY>  (1449) 
0

>  <NONCOV_INTER_ENERGY_QM>  (1449) 
0

>  <FF_Energy>  (1449) 
-4.28

>  <QM_Energy>  (1449) 
-11.25

>  <source>  (1449) 
ETAM_MSM

>  <Index>  (1449) 
9215

$$$$
ETAM-pdb4zi6-E-LYS-117:MSM-pdb4zi6-E-MET-1
     RDKit          3D

 20 18  0  0  0  0  0  0  0  0999 V2000
    1.2471    0.8807   -0.0000 C   0  0  0  0  0  0  0  0  0  0  0  0
    2.0227    0.3279    0.2930 H   0  0  0  0  0  0  0  0  0  0  0  0
    1.1022    1.6317    0.6377 H   0  0  0  0  0  0  0  0  0  0  0  0
    1.4583    1.2905   -0.9877 H   0  0  0  0  0  0  0  0  0  0  0  0
    0.0000    0.0000    0.0000 C   0  0  0  0  0  0  0  0  0  0  0  0
    0.0200   -0.5853   -0.8159 H   0  0  0  0  0  0  0  0  0  0  0  0
    0.0195   -0.5851    0.8166 H   0  0  0  0  0  0  0  0  0  0  0  0
   -1.2471    0.8022   -0.0000 N   0  0  0  0  0  4  0  0  0  0  0  0
   -1.0201    1.7728    0.0822 H   0  0  0  0  0  0  0  0  0  0  0  0
   -1.7437    0.6481   -0.8545 H   0  0  0  0  0  0  0  0  0  0  0  0
   -1.8207    0.5278    0.7729 H   0  0  0  0  0  0  0  0  0  0  0  0
   -2.3246    4.2409    0.4289 C   0  0  0  0  0  0  0  0  0  0  0  0
   -2.4773    3.6955   -0.4535 H   0  0  0  0  0  0  0  0  0  0  0  0
   -1.2990    4.4540    0.3846 H   0  0  0  0  0  0  0  0  0  0  0  0
   -2.8588    5.1852    0.3235 H   0  0  0  0  0  0  0  0  0  0  0  0
   -2.6926    3.2061    1.8829 S   0  0  0  0  0  0  0  0  0  0  0  0
   -1.7647    4.0364    3.1800 C   0  0  0  0  0  0  0  0  0  0  0  0
   -1.2971    4.8325    2.7970 H   0  0  0  0  0  0  0  0  0  0  0  0
   -2.3923    4.3320    3.9001 H   0  0  0  0  0  0  0  0  0  0  0  0
   -1.0901    3.4048    3.5625 H   0  0  0  0  0  0  0  0  0  0  0  0
  1  5  1  0
  5  8  1  0
  1  2  1  0
  1  3  1  0
  1  4  1  0
  5  6  1  0
  5  7  1  0
  8  9  1  0
  8 10  1  0
  8 11  1  0
 12 16  1  0
 16 17  1  0
 12 13  1  0
 12 14  1  0
 12 15  1  0
 17 18  1  0
 17 19  1  0
 17 20  1  0
M  CHG  1   8   1
M  END
>  <PDB_ID>  (1450) 
pdb4zi6

>  <RESIDUE_NAME>  (1450) 
LYS   MET

>  <FRAG_NAME>  (1450) 
ETAM   MSM

>  <FRAG_ATOM_NUM>  (1450) 
fragi: 11  fragj: 9

>  <atom.prop.CHAIN_ID>  (1450) 
A A A A A A A A A A A Z Z Z Z Z Z Z Z Z

>  <atom.prop.IS_HEAVY_ATOM>  (1450) 
1 0 0 0 1 0 0 1 0 0 0 1 0 0 0 1 1 0 0 0

>  <DIFUSE_FUNC_ATOM>  (1450) 
n/a

>  <FINAL_SINGLE_POINT_ENERGY>  (1450) 
0

>  <NONCOV_INTER_ENERGY_QM>  (1450) 
0

>  <FF_Energy>  (1450) 
-4.19

>  <QM_Energy>  (1450) 
-11.29

>  <source>  (1450) 
ETAM_MSM

>  <Index>  (1450) 
9217

$$$$
ETAM-pdb4zj7-A-LYS-273:MSM-pdb4zj7-A-MET-312
     RDKit          3D

 20 18  0  0  0  0  0  0  0  0999 V2000
    1.2479    0.8650   -0.0000 C   0  0  0  0  0  0  0  0  0  0  0  0
    0.9793    1.8087    0.1440 H   0  0  0  0  0  0  0  0  0  0  0  0
    1.7073    0.7579   -0.8723 H   0  0  0  0  0  0  0  0  0  0  0  0
    1.9239    0.5614    0.7993 H   0  0  0  0  0  0  0  0  0  0  0  0
    0.0000    0.0000    0.0000 C   0  0  0  0  0  0  0  0  0  0  0  0
    0.0114   -0.5878   -0.8166 H   0  0  0  0  0  0  0  0  0  0  0  0
    0.0111   -0.5876    0.8167 H   0  0  0  0  0  0  0  0  0  0  0  0
   -1.2479    0.8090   -0.0000 N   0  0  0  0  0  4  0  0  0  0  0  0
   -1.2769    1.3753    0.8237 H   0  0  0  0  0  0  0  0  0  0  0  0
   -1.2636    1.3955   -0.8101 H   0  0  0  0  0  0  0  0  0  0  0  0
   -2.0393    0.1988   -0.0138 H   0  0  0  0  0  0  0  0  0  0  0  0
   -3.4111   -2.5585    1.5883 C   0  0  0  0  0  0  0  0  0  0  0  0
   -2.4639   -2.4726    1.9648 H   0  0  0  0  0  0  0  0  0  0  0  0
   -3.4806   -3.5076    1.2144 H   0  0  0  0  0  0  0  0  0  0  0  0
   -4.1219   -2.4537    2.4080 H   0  0  0  0  0  0  0  0  0  0  0  0
   -3.6938   -1.3395    0.2882 S   0  0  0  0  0  0  0  0  0  0  0  0
   -2.7715   -2.0661   -1.0654 C   0  0  0  0  0  0  0  0  0  0  0  0
   -2.1634   -1.3779   -1.4648 H   0  0  0  0  0  0  0  0  0  0  0  0
   -2.2264   -2.8336   -0.7260 H   0  0  0  0  0  0  0  0  0  0  0  0
   -3.4060   -2.3941   -1.7662 H   0  0  0  0  0  0  0  0  0  0  0  0
  1  5  1  0
  5  8  1  0
  1  2  1  0
  1  3  1  0
  1  4  1  0
  5  6  1  0
  5  7  1  0
  8  9  1  0
  8 10  1  0
  8 11  1  0
 12 16  1  0
 16 17  1  0
 12 13  1  0
 12 14  1  0
 12 15  1  0
 17 18  1  0
 17 19  1  0
 17 20  1  0
M  CHG  1   8   1
M  END
>  <PDB_ID>  (1451) 
pdb4zj7

>  <RESIDUE_NAME>  (1451) 
LYS   MET

>  <FRAG_NAME>  (1451) 
ETAM   MSM

>  <FRAG_ATOM_NUM>  (1451) 
fragi: 11  fragj: 9

>  <atom.prop.CHAIN_ID>  (1451) 
A A A A A A A A A A A Z Z Z Z Z Z Z Z Z

>  <atom.prop.IS_HEAVY_ATOM>  (1451) 
1 0 0 0 1 0 0 1 0 0 0 1 0 0 0 1 1 0 0 0

>  <DIFUSE_FUNC_ATOM>  (1451) 
n/a

>  <FINAL_SINGLE_POINT_ENERGY>  (1451) 
0

>  <NONCOV_INTER_ENERGY_QM>  (1451) 
0

>  <FF_Energy>  (1451) 
-4.18

>  <QM_Energy>  (1451) 
-13.92

>  <source>  (1451) 
ETAM_MSM

>  <Index>  (1451) 
9223

$$$$
ETAM-pdb4zox-A-LYS-161:MSM-pdb4zox-A-MET-206
     RDKit          3D

 20 18  0  0  0  0  0  0  0  0999 V2000
    1.2571    0.8735    0.0000 C   0  0  0  0  0  0  0  0  0  0  0  0
    1.1967    1.5077    0.7607 H   0  0  0  0  0  0  0  0  0  0  0  0
    1.2984    1.3624   -0.8627 H   0  0  0  0  0  0  0  0  0  0  0  0
    2.1572    0.2688    0.1113 H   0  0  0  0  0  0  0  0  0  0  0  0
    0.0000    0.0000    0.0000 C   0  0  0  0  0  0  0  0  0  0  0  0
    0.0055   -0.5772   -0.8158 H   0  0  0  0  0  0  0  0  0  0  0  0
    0.0042   -0.5774    0.8166 H   0  0  0  0  0  0  0  0  0  0  0  0
   -1.2571    0.8329   -0.0000 N   0  0  0  0  0  4  0  0  0  0  0  0
   -1.7397    0.6873    0.8599 H   0  0  0  0  0  0  0  0  0  0  0  0
   -1.0075    1.7924   -0.0939 H   0  0  0  0  0  0  0  0  0  0  0  0
   -1.8297    0.5519   -0.7655 H   0  0  0  0  0  0  0  0  0  0  0  0
   -3.3214   -0.0776    3.7419 C   0  0  0  0  0  0  0  0  0  0  0  0
   -4.2263   -0.2801    3.3032 H   0  0  0  0  0  0  0  0  0  0  0  0
   -3.1573    0.9220    3.5823 H   0  0  0  0  0  0  0  0  0  0  0  0
   -3.4239   -0.2365    4.8154 H   0  0  0  0  0  0  0  0  0  0  0  0
   -2.0042   -1.0733    2.9873 S   0  0  0  0  0  0  0  0  0  0  0  0
   -2.5376   -2.7352    3.4333 C   0  0  0  0  0  0  0  0  0  0  0  0
   -2.0631   -3.4002    2.8580 H   0  0  0  0  0  0  0  0  0  0  0  0
   -2.3194   -2.9061    4.3936 H   0  0  0  0  0  0  0  0  0  0  0  0
   -3.5239   -2.8148    3.2943 H   0  0  0  0  0  0  0  0  0  0  0  0
  1  5  1  0
  5  8  1  0
  1  2  1  0
  1  3  1  0
  1  4  1  0
  5  6  1  0
  5  7  1  0
  8  9  1  0
  8 10  1  0
  8 11  1  0
 12 16  1  0
 16 17  1  0
 12 13  1  0
 12 14  1  0
 12 15  1  0
 17 18  1  0
 17 19  1  0
 17 20  1  0
M  CHG  1   8   1
M  END
>  <PDB_ID>  (1452) 
pdb4zox

>  <RESIDUE_NAME>  (1452) 
LYS   MET

>  <FRAG_NAME>  (1452) 
ETAM   MSM

>  <FRAG_ATOM_NUM>  (1452) 
fragi: 11  fragj: 9

>  <atom.prop.CHAIN_ID>  (1452) 
A A A A A A A A A A A Z Z Z Z Z Z Z Z Z

>  <atom.prop.IS_HEAVY_ATOM>  (1452) 
1 0 0 0 1 0 0 1 0 0 0 1 0 0 0 1 1 0 0 0

>  <DIFUSE_FUNC_ATOM>  (1452) 
n/a

>  <FINAL_SINGLE_POINT_ENERGY>  (1452) 
0

>  <NONCOV_INTER_ENERGY_QM>  (1452) 
0

>  <FF_Energy>  (1452) 
-5.21

>  <QM_Energy>  (1452) 
-12.85

>  <source>  (1452) 
ETAM_MSM

>  <Index>  (1452) 
9231

$$$$
ETAM-pdb4zov-B-LYS-161:MSM-pdb4zov-B-MET-206
     RDKit          3D

 20 18  0  0  0  0  0  0  0  0999 V2000
    1.2585    0.8739   -0.0000 C   0  0  0  0  0  0  0  0  0  0  0  0
    1.2251    1.4787    0.7812 H   0  0  0  0  0  0  0  0  0  0  0  0
    1.2938    1.3793   -0.8479 H   0  0  0  0  0  0  0  0  0  0  0  0
    2.1555    0.2594    0.0756 H   0  0  0  0  0  0  0  0  0  0  0  0
    0.0000    0.0000    0.0000 C   0  0  0  0  0  0  0  0  0  0  0  0
    0.0107   -0.5815   -0.8165 H   0  0  0  0  0  0  0  0  0  0  0  0
    0.0101   -0.5809    0.8163 H   0  0  0  0  0  0  0  0  0  0  0  0
   -1.2585    0.8203    0.0000 N   0  0  0  0  0  4  0  0  0  0  0  0
   -1.1160    1.6334    0.5597 H   0  0  0  0  0  0  0  0  0  0  0  0
   -1.4727    1.0854   -0.9372 H   0  0  0  0  0  0  0  0  0  0  0  0
   -2.0024    0.2731    0.3777 H   0  0  0  0  0  0  0  0  0  0  0  0
   -3.1765   -0.1270    3.8207 C   0  0  0  0  0  0  0  0  0  0  0  0
   -4.0755   -0.3721    3.4070 H   0  0  0  0  0  0  0  0  0  0  0  0
   -3.0583    0.8761    3.6813 H   0  0  0  0  0  0  0  0  0  0  0  0
   -3.2353   -0.3160    4.8925 H   0  0  0  0  0  0  0  0  0  0  0  0
   -1.8295   -1.0526    3.0369 S   0  0  0  0  0  0  0  0  0  0  0  0
   -2.2299   -2.7309    3.5513 C   0  0  0  0  0  0  0  0  0  0  0  0
   -2.9173   -2.6997    4.2759 H   0  0  0  0  0  0  0  0  0  0  0  0
   -2.5894   -3.2397    2.7699 H   0  0  0  0  0  0  0  0  0  0  0  0
   -1.4043   -3.1788    3.8917 H   0  0  0  0  0  0  0  0  0  0  0  0
  1  5  1  0
  5  8  1  0
  1  2  1  0
  1  3  1  0
  1  4  1  0
  5  6  1  0
  5  7  1  0
  8  9  1  0
  8 10  1  0
  8 11  1  0
 12 16  1  0
 16 17  1  0
 12 13  1  0
 12 14  1  0
 12 15  1  0
 17 18  1  0
 17 19  1  0
 17 20  1  0
M  CHG  1   8   1
M  END
>  <PDB_ID>  (1453) 
pdb4zov

>  <RESIDUE_NAME>  (1453) 
LYS   MET

>  <FRAG_NAME>  (1453) 
ETAM   MSM

>  <FRAG_ATOM_NUM>  (1453) 
fragi: 11  fragj: 9

>  <atom.prop.CHAIN_ID>  (1453) 
A A A A A A A A A A A Z Z Z Z Z Z Z Z Z

>  <atom.prop.IS_HEAVY_ATOM>  (1453) 
1 0 0 0 1 0 0 1 0 0 0 1 0 0 0 1 1 0 0 0

>  <DIFUSE_FUNC_ATOM>  (1453) 
n/a

>  <FINAL_SINGLE_POINT_ENERGY>  (1453) 
0

>  <NONCOV_INTER_ENERGY_QM>  (1453) 
0

>  <FF_Energy>  (1453) 
-5.05

>  <QM_Energy>  (1453) 
-12.58

>  <source>  (1453) 
ETAM_MSM

>  <Index>  (1453) 
9233

$$$$
ETAM-pdb4zlh-B-LYS-348:MSM-pdb4zlh-A-MET-315
     RDKit          3D

 20 18  0  0  0  0  0  0  0  0999 V2000
    1.2507    0.8657   -0.0000 C   0  0  0  0  0  0  0  0  0  0  0  0
    1.2376    1.4424   -0.8090 H   0  0  0  0  0  0  0  0  0  0  0  0
    2.0469    0.2718   -0.0081 H   0  0  0  0  0  0  0  0  0  0  0  0
    1.2916    1.5004    0.8852 H   0  0  0  0  0  0  0  0  0  0  0  0
    0.0000    0.0000    0.0000 C   0  0  0  0  0  0  0  0  0  0  0  0
    0.0097   -0.5861   -0.8166 H   0  0  0  0  0  0  0  0  0  0  0  0
    0.0104   -0.5865    0.8160 H   0  0  0  0  0  0  0  0  0  0  0  0
   -1.2507    0.8130   -0.0000 N   0  0  0  0  0  4  0  0  0  0  0  0
   -1.9231    0.3832    0.6008 H   0  0  0  0  0  0  0  0  0  0  0  0
   -1.0461    1.7338    0.3289 H   0  0  0  0  0  0  0  0  0  0  0  0
   -1.6125    0.8614   -0.9299 H   0  0  0  0  0  0  0  0  0  0  0  0
   -1.7268    1.1515   -3.6881 C   0  0  0  0  0  0  0  0  0  0  0  0
   -2.0047    2.1072   -3.4342 H   0  0  0  0  0  0  0  0  0  0  0  0
   -2.3462    0.5371   -3.1454 H   0  0  0  0  0  0  0  0  0  0  0  0
   -1.9345    1.0025   -4.7478 H   0  0  0  0  0  0  0  0  0  0  0  0
    0.0006    0.8543   -3.2584 S   0  0  0  0  0  0  0  0  0  0  0  0
    0.6601    2.5169   -3.2999 C   0  0  0  0  0  0  0  0  0  0  0  0
    1.5515    2.5144   -3.7559 H   0  0  0  0  0  0  0  0  0  0  0  0
    0.0331    3.1156   -3.8020 H   0  0  0  0  0  0  0  0  0  0  0  0
    0.7680    2.8593   -2.3655 H   0  0  0  0  0  0  0  0  0  0  0  0
  1  5  1  0
  5  8  1  0
  1  2  1  0
  1  3  1  0
  1  4  1  0
  5  6  1  0
  5  7  1  0
  8  9  1  0
  8 10  1  0
  8 11  1  0
 12 16  1  0
 16 17  1  0
 12 13  1  0
 12 14  1  0
 12 15  1  0
 17 18  1  0
 17 19  1  0
 17 20  1  0
M  CHG  1   8   1
M  END
>  <PDB_ID>  (1454) 
pdb4zlh

>  <RESIDUE_NAME>  (1454) 
LYS   MET

>  <FRAG_NAME>  (1454) 
ETAM   MSM

>  <FRAG_ATOM_NUM>  (1454) 
fragi: 11  fragj: 9

>  <atom.prop.CHAIN_ID>  (1454) 
A A A A A A A A A A A Z Z Z Z Z Z Z Z Z

>  <atom.prop.IS_HEAVY_ATOM>  (1454) 
1 0 0 0 1 0 0 1 0 0 0 1 0 0 0 1 1 0 0 0

>  <DIFUSE_FUNC_ATOM>  (1454) 
n/a

>  <FINAL_SINGLE_POINT_ENERGY>  (1454) 
0

>  <NONCOV_INTER_ENERGY_QM>  (1454) 
0

>  <FF_Energy>  (1454) 
-2.79

>  <QM_Energy>  (1454) 
-10.13

>  <source>  (1454) 
ETAM_MSM

>  <Index>  (1454) 
9235

$$$$
ETAM-pdb4zqm-A-LYS-332:MSM-pdb4zqm-A-MET-395
     RDKit          3D

 20 18  0  0  0  0  0  0  0  0999 V2000
    1.2704    0.8850    0.0000 C   0  0  0  0  0  0  0  0  0  0  0  0
    1.2446    1.4650   -0.8080 H   0  0  0  0  0  0  0  0  0  0  0  0
    2.0648    0.2873   -0.0282 H   0  0  0  0  0  0  0  0  0  0  0  0
    1.3426    1.5205    0.8826 H   0  0  0  0  0  0  0  0  0  0  0  0
    0.0000    0.0000    0.0000 C   0  0  0  0  0  0  0  0  0  0  0  0
    0.0200   -0.5821   -0.8166 H   0  0  0  0  0  0  0  0  0  0  0  0
    0.0193   -0.5824    0.8163 H   0  0  0  0  0  0  0  0  0  0  0  0
   -1.2704    0.8057    0.0000 N   0  0  0  0  0  4  0  0  0  0  0  0
   -1.4718    1.0918   -0.9334 H   0  0  0  0  0  0  0  0  0  0  0  0
   -2.0126    0.2402    0.3517 H   0  0  0  0  0  0  0  0  0  0  0  0
   -1.1464    1.6056    0.5827 H   0  0  0  0  0  0  0  0  0  0  0  0
    1.2067    2.4154   -4.7201 C   0  0  0  0  0  0  0  0  0  0  0  0
    0.6812    3.1964   -5.1189 H   0  0  0  0  0  0  0  0  0  0  0  0
    1.5365    1.8631   -5.5146 H   0  0  0  0  0  0  0  0  0  0  0  0
    2.0776    2.8220   -4.2059 H   0  0  0  0  0  0  0  0  0  0  0  0
    0.1736    1.4281   -3.6287 S   0  0  0  0  0  0  0  0  0  0  0  0
    0.8888   -0.2257   -3.8727 C   0  0  0  0  0  0  0  0  0  0  0  0
    1.8441   -0.2088   -3.5892 H   0  0  0  0  0  0  0  0  0  0  0  0
    0.3799   -0.8812   -3.3208 H   0  0  0  0  0  0  0  0  0  0  0  0
    0.8221   -0.4663   -4.8378 H   0  0  0  0  0  0  0  0  0  0  0  0
  1  5  1  0
  5  8  1  0
  1  2  1  0
  1  3  1  0
  1  4  1  0
  5  6  1  0
  5  7  1  0
  8  9  1  0
  8 10  1  0
  8 11  1  0
 12 16  1  0
 16 17  1  0
 12 13  1  0
 12 14  1  0
 12 15  1  0
 17 18  1  0
 17 19  1  0
 17 20  1  0
M  CHG  1   8   1
M  END
>  <PDB_ID>  (1455) 
pdb4zqm

>  <RESIDUE_NAME>  (1455) 
LYS   MET

>  <FRAG_NAME>  (1455) 
ETAM   MSM

>  <FRAG_ATOM_NUM>  (1455) 
fragi: 11  fragj: 9

>  <atom.prop.CHAIN_ID>  (1455) 
A A A A A A A A A A A Z Z Z Z Z Z Z Z Z

>  <atom.prop.IS_HEAVY_ATOM>  (1455) 
1 0 0 0 1 0 0 1 0 0 0 1 0 0 0 1 1 0 0 0

>  <DIFUSE_FUNC_ATOM>  (1455) 
n/a

>  <FINAL_SINGLE_POINT_ENERGY>  (1455) 
0

>  <NONCOV_INTER_ENERGY_QM>  (1455) 
0

>  <FF_Energy>  (1455) 
-4.97

>  <QM_Energy>  (1455) 
-10.18

>  <source>  (1455) 
ETAM_MSM

>  <Index>  (1455) 
9244

$$$$
ETAM-pdb5a2f-A-LYS-57:MSM-pdb5a2f-A-MET-114
     RDKit          3D

 20 18  0  0  0  0  0  0  0  0999 V2000
    1.2432    0.8541   -0.0000 C   0  0  0  0  0  0  0  0  0  0  0  0
    1.3056    1.3333    0.8666 H   0  0  0  0  0  0  0  0  0  0  0  0
    1.1932    1.4963   -0.7548 H   0  0  0  0  0  0  0  0  0  0  0  0
    2.1330    0.2368   -0.1231 H   0  0  0  0  0  0  0  0  0  0  0  0
    0.0000    0.0000    0.0000 C   0  0  0  0  0  0  0  0  0  0  0  0
    0.0051   -0.5903   -0.8166 H   0  0  0  0  0  0  0  0  0  0  0  0
    0.0050   -0.5910    0.8168 H   0  0  0  0  0  0  0  0  0  0  0  0
   -1.2432    0.8131    0.0000 N   0  0  0  0  0  4  0  0  0  0  0  0
   -1.0311    1.7453    0.2941 H   0  0  0  0  0  0  0  0  0  0  0  0
   -1.6278    0.8336   -0.9225 H   0  0  0  0  0  0  0  0  0  0  0  0
   -1.9070    0.4070    0.6288 H   0  0  0  0  0  0  0  0  0  0  0  0
    0.0296   -0.6646   -4.2922 C   0  0  0  0  0  0  0  0  0  0  0  0
   -0.7935   -1.2765   -4.1386 H   0  0  0  0  0  0  0  0  0  0  0  0
    0.8052   -1.1684   -3.8236 H   0  0  0  0  0  0  0  0  0  0  0  0
    0.2373   -0.6329   -5.3617 H   0  0  0  0  0  0  0  0  0  0  0  0
   -0.2321    0.9503   -3.5142 S   0  0  0  0  0  0  0  0  0  0  0  0
   -1.4027    1.6672   -4.6039 C   0  0  0  0  0  0  0  0  0  0  0  0
   -1.5294    1.0889   -5.4200 H   0  0  0  0  0  0  0  0  0  0  0  0
   -2.2956    1.7703   -4.1483 H   0  0  0  0  0  0  0  0  0  0  0  0
   -1.0951    2.5779   -4.9069 H   0  0  0  0  0  0  0  0  0  0  0  0
  1  5  1  0
  5  8  1  0
  1  2  1  0
  1  3  1  0
  1  4  1  0
  5  6  1  0
  5  7  1  0
  8  9  1  0
  8 10  1  0
  8 11  1  0
 12 16  1  0
 16 17  1  0
 12 13  1  0
 12 14  1  0
 12 15  1  0
 17 18  1  0
 17 19  1  0
 17 20  1  0
M  CHG  1   8   1
M  END
>  <PDB_ID>  (1456) 
pdb5a2f

>  <RESIDUE_NAME>  (1456) 
LYS   MET

>  <FRAG_NAME>  (1456) 
ETAM   MSM

>  <FRAG_ATOM_NUM>  (1456) 
fragi: 11  fragj: 9

>  <atom.prop.CHAIN_ID>  (1456) 
A A A A A A A A A A A Z Z Z Z Z Z Z Z Z

>  <atom.prop.IS_HEAVY_ATOM>  (1456) 
1 0 0 0 1 0 0 1 0 0 0 1 0 0 0 1 1 0 0 0

>  <DIFUSE_FUNC_ATOM>  (1456) 
n/a

>  <FINAL_SINGLE_POINT_ENERGY>  (1456) 
0

>  <NONCOV_INTER_ENERGY_QM>  (1456) 
0

>  <FF_Energy>  (1456) 
-5.35

>  <QM_Energy>  (1456) 
-13.53

>  <source>  (1456) 
ETAM_MSM

>  <Index>  (1456) 
9300

$$$$
ETAM-pdb5a8k-A-LYS-13:MSM-pdb5a8k-A-MET-70
     RDKit          3D

 20 18  0  0  0  0  0  0  0  0999 V2000
    1.2103    0.8029   -0.0000 C   0  0  0  0  0  0  0  0  0  0  0  0
    1.9103    0.3837    0.5791 H   0  0  0  0  0  0  0  0  0  0  0  0
    1.0184    1.7282    0.3272 H   0  0  0  0  0  0  0  0  0  0  0  0
    1.6276    0.8908   -1.0031 H   0  0  0  0  0  0  0  0  0  0  0  0
    0.0000    0.0000    0.0000 C   0  0  0  0  0  0  0  0  0  0  0  0
   -0.0191   -0.6046   -0.8164 H   0  0  0  0  0  0  0  0  0  0  0  0
   -0.0189   -0.6050    0.8167 H   0  0  0  0  0  0  0  0  0  0  0  0
   -1.2103    0.8217    0.0000 N   0  0  0  0  0  4  0  0  0  0  0  0
   -1.3111    1.2854    0.8846 H   0  0  0  0  0  0  0  0  0  0  0  0
   -1.1574    1.5132   -0.7262 H   0  0  0  0  0  0  0  0  0  0  0  0
   -2.0169    0.2462   -0.1586 H   0  0  0  0  0  0  0  0  0  0  0  0
    0.4745    5.0021    1.0506 C   0  0  0  0  0  0  0  0  0  0  0  0
    1.4361    4.8600    0.7680 H   0  0  0  0  0  0  0  0  0  0  0  0
    0.4062    5.9318    1.4443 H   0  0  0  0  0  0  0  0  0  0  0  0
   -0.1773    4.9239    0.1804 H   0  0  0  0  0  0  0  0  0  0  0  0
   -0.0019    3.7578    2.2970 S   0  0  0  0  0  0  0  0  0  0  0  0
   -1.5678    4.4018    2.8978 C   0  0  0  0  0  0  0  0  0  0  0  0
   -1.8067    3.9493    3.7572 H   0  0  0  0  0  0  0  0  0  0  0  0
   -1.4861    5.3869    3.0499 H   0  0  0  0  0  0  0  0  0  0  0  0
   -2.2822    4.2269    2.2203 H   0  0  0  0  0  0  0  0  0  0  0  0
  1  5  1  0
  5  8  1  0
  1  2  1  0
  1  3  1  0
  1  4  1  0
  5  6  1  0
  5  7  1  0
  8  9  1  0
  8 10  1  0
  8 11  1  0
 12 16  1  0
 16 17  1  0
 12 13  1  0
 12 14  1  0
 12 15  1  0
 17 18  1  0
 17 19  1  0
 17 20  1  0
M  CHG  1   8   1
M  END
>  <PDB_ID>  (1457) 
pdb5a8k

>  <RESIDUE_NAME>  (1457) 
LYS   MET

>  <FRAG_NAME>  (1457) 
ETAM   MSM

>  <FRAG_ATOM_NUM>  (1457) 
fragi: 11  fragj: 9

>  <atom.prop.CHAIN_ID>  (1457) 
A A A A A A A A A A A Z Z Z Z Z Z Z Z Z

>  <atom.prop.IS_HEAVY_ATOM>  (1457) 
1 0 0 0 1 0 0 1 0 0 0 1 0 0 0 1 1 0 0 0

>  <DIFUSE_FUNC_ATOM>  (1457) 
n/a

>  <FINAL_SINGLE_POINT_ENERGY>  (1457) 
0

>  <NONCOV_INTER_ENERGY_QM>  (1457) 
0

>  <FF_Energy>  (1457) 
-4.14

>  <QM_Energy>  (1457) 
-10.84

>  <source>  (1457) 
ETAM_MSM

>  <Index>  (1457) 
9302

$$$$
ETAM-pdb5a8r-A-LYS-14:MSM-pdb5a8r-A-MET-73
     RDKit          3D

 20 18  0  0  0  0  0  0  0  0999 V2000
    1.2516    0.8803    0.0000 C   0  0  0  0  0  0  0  0  0  0  0  0
    0.9671    1.8296    0.0435 H   0  0  0  0  0  0  0  0  0  0  0  0
    1.7595    0.7031   -0.8332 H   0  0  0  0  0  0  0  0  0  0  0  0
    1.8883    0.6613    0.8572 H   0  0  0  0  0  0  0  0  0  0  0  0
    0.0000    0.0000    0.0000 C   0  0  0  0  0  0  0  0  0  0  0  0
    0.0167   -0.5821   -0.8163 H   0  0  0  0  0  0  0  0  0  0  0  0
    0.0163   -0.5826    0.8162 H   0  0  0  0  0  0  0  0  0  0  0  0
   -1.2516    0.8106   -0.0000 N   0  0  0  0  0  4  0  0  0  0  0  0
   -1.0218    1.7722   -0.1415 H   0  0  0  0  0  0  0  0  0  0  0  0
   -1.8484    0.4957   -0.7363 H   0  0  0  0  0  0  0  0  0  0  0  0
   -1.7155    0.7017    0.8780 H   0  0  0  0  0  0  0  0  0  0  0  0
   -2.6007   -2.7419    1.9249 C   0  0  0  0  0  0  0  0  0  0  0  0
   -1.6932   -3.1672    2.0824 H   0  0  0  0  0  0  0  0  0  0  0  0
   -3.3017   -3.4088    2.2276 H   0  0  0  0  0  0  0  0  0  0  0  0
   -2.6807   -1.8417    2.5342 H   0  0  0  0  0  0  0  0  0  0  0  0
   -2.8199   -2.3357    0.1769 S   0  0  0  0  0  0  0  0  0  0  0  0
   -4.5654   -1.9223    0.1314 C   0  0  0  0  0  0  0  0  0  0  0  0
   -4.9118   -2.0386   -0.7998 H   0  0  0  0  0  0  0  0  0  0  0  0
   -5.0682   -2.5264    0.7506 H   0  0  0  0  0  0  0  0  0  0  0  0
   -4.6915   -0.9721    0.4177 H   0  0  0  0  0  0  0  0  0  0  0  0
  1  5  1  0
  5  8  1  0
  1  2  1  0
  1  3  1  0
  1  4  1  0
  5  6  1  0
  5  7  1  0
  8  9  1  0
  8 10  1  0
  8 11  1  0
 12 16  1  0
 16 17  1  0
 12 13  1  0
 12 14  1  0
 12 15  1  0
 17 18  1  0
 17 19  1  0
 17 20  1  0
M  CHG  1   8   1
M  END
>  <PDB_ID>  (1458) 
pdb5a8r

>  <RESIDUE_NAME>  (1458) 
LYS   MET

>  <FRAG_NAME>  (1458) 
ETAM   MSM

>  <FRAG_ATOM_NUM>  (1458) 
fragi: 11  fragj: 9

>  <atom.prop.CHAIN_ID>  (1458) 
A A A A A A A A A A A Z Z Z Z Z Z Z Z Z

>  <atom.prop.IS_HEAVY_ATOM>  (1458) 
1 0 0 0 1 0 0 1 0 0 0 1 0 0 0 1 1 0 0 0

>  <DIFUSE_FUNC_ATOM>  (1458) 
n/a

>  <FINAL_SINGLE_POINT_ENERGY>  (1458) 
0

>  <NONCOV_INTER_ENERGY_QM>  (1458) 
0

>  <FF_Energy>  (1458) 
-4.65

>  <QM_Energy>  (1458) 
-11.67

>  <source>  (1458) 
ETAM_MSM

>  <Index>  (1458) 
9308

$$$$
ETAM-pdb6a1k-A-LYS-266:MSM-pdb6a1k-A-MET-250
     RDKit          3D

 20 18  0  0  0  0  0  0  0  0999 V2000
    1.1840    0.8984    0.0000 C   0  0  0  0  0  0  0  0  0  0  0  0
    1.0567    1.6021    0.7143 H   0  0  0  0  0  0  0  0  0  0  0  0
    1.2331    1.3688   -0.8927 H   0  0  0  0  0  0  0  0  0  0  0  0
    2.1241    0.3768    0.1799 H   0  0  0  0  0  0  0  0  0  0  0  0
    0.0000    0.0000    0.0000 C   0  0  0  0  0  0  0  0  0  0  0  0
    0.0037   -0.5591   -0.8167 H   0  0  0  0  0  0  0  0  0  0  0  0
    0.0034   -0.5591    0.8160 H   0  0  0  0  0  0  0  0  0  0  0  0
   -1.1840    0.8632    0.0000 N   0  0  0  0  0  4  0  0  0  0  0  0
   -1.4751    1.0457    0.9427 H   0  0  0  0  0  0  0  0  0  0  0  0
   -0.9732    1.7344   -0.4505 H   0  0  0  0  0  0  0  0  0  0  0  0
   -1.9350    0.4149   -0.4919 H   0  0  0  0  0  0  0  0  0  0  0  0
    1.3056    5.2649   -1.0137 C   0  0  0  0  0  0  0  0  0  0  0  0
    1.7958    6.1246   -0.7328 H   0  0  0  0  0  0  0  0  0  0  0  0
    0.4940    5.5863   -1.5581 H   0  0  0  0  0  0  0  0  0  0  0  0
    1.9585    4.6807   -1.6621 H   0  0  0  0  0  0  0  0  0  0  0  0
    0.7699    4.3469    0.4308 S   0  0  0  0  0  0  0  0  0  0  0  0
    2.2542    3.7588    1.2107 C   0  0  0  0  0  0  0  0  0  0  0  0
    2.9327    3.5112    0.5147 H   0  0  0  0  0  0  0  0  0  0  0  0
    2.6391    4.4744    1.8001 H   0  0  0  0  0  0  0  0  0  0  0  0
    2.0505    2.9506    1.7693 H   0  0  0  0  0  0  0  0  0  0  0  0
  1  5  1  0
  5  8  1  0
  1  2  1  0
  1  3  1  0
  1  4  1  0
  5  6  1  0
  5  7  1  0
  8  9  1  0
  8 10  1  0
  8 11  1  0
 12 16  1  0
 16 17  1  0
 12 13  1  0
 12 14  1  0
 12 15  1  0
 17 18  1  0
 17 19  1  0
 17 20  1  0
M  CHG  1   8   1
M  END
>  <PDB_ID>  (1459) 
pdb6a1k

>  <RESIDUE_NAME>  (1459) 
LYS   MET

>  <FRAG_NAME>  (1459) 
ETAM   MSM

>  <FRAG_ATOM_NUM>  (1459) 
fragi: 11  fragj: 9

>  <atom.prop.CHAIN_ID>  (1459) 
A A A A A A A A A A A Z Z Z Z Z Z Z Z Z

>  <atom.prop.IS_HEAVY_ATOM>  (1459) 
1 0 0 0 1 0 0 1 0 0 0 1 0 0 0 1 1 0 0 0

>  <DIFUSE_FUNC_ATOM>  (1459) 
n/a

>  <FINAL_SINGLE_POINT_ENERGY>  (1459) 
0

>  <NONCOV_INTER_ENERGY_QM>  (1459) 
0

>  <FF_Energy>  (1459) 
-1.71

>  <QM_Energy>  (1459) 
-8.84

>  <source>  (1459) 
ETAM_MSM

>  <Index>  (1459) 
9311

$$$$
ETAM-pdb5ab4-A-LYS-174:MSM-pdb5ab4-A-MET-330
     RDKit          3D

 20 18  0  0  0  0  0  0  0  0999 V2000
    1.2536    0.8699   -0.0000 C   0  0  0  0  0  0  0  0  0  0  0  0
    1.2005    1.5046    0.7635 H   0  0  0  0  0  0  0  0  0  0  0  0
    1.2985    1.3634   -0.8613 H   0  0  0  0  0  0  0  0  0  0  0  0
    2.1590    0.2724    0.1069 H   0  0  0  0  0  0  0  0  0  0  0  0
    0.0000    0.0000    0.0000 C   0  0  0  0  0  0  0  0  0  0  0  0
    0.0158   -0.5879   -0.8163 H   0  0  0  0  0  0  0  0  0  0  0  0
    0.0156   -0.5881    0.8163 H   0  0  0  0  0  0  0  0  0  0  0  0
   -1.2536    0.8026    0.0000 N   0  0  0  0  0  4  0  0  0  0  0  0
   -1.7654    0.6186    0.8385 H   0  0  0  0  0  0  0  0  0  0  0  0
   -1.0250    1.7744   -0.0466 H   0  0  0  0  0  0  0  0  0  0  0  0
   -1.8087    0.5514   -0.7927 H   0  0  0  0  0  0  0  0  0  0  0  0
    0.3200   -0.9820    4.2051 C   0  0  0  0  0  0  0  0  0  0  0  0
    0.0863   -0.0623    4.5917 H   0  0  0  0  0  0  0  0  0  0  0  0
    1.2404   -0.8729    3.7688 H   0  0  0  0  0  0  0  0  0  0  0  0
    0.4049   -1.6930    5.0268 H   0  0  0  0  0  0  0  0  0  0  0  0
   -0.9009   -1.4966    2.9993 S   0  0  0  0  0  0  0  0  0  0  0  0
   -0.5480   -3.2412    2.8950 C   0  0  0  0  0  0  0  0  0  0  0  0
   -0.0063   -3.5265    3.6891 H   0  0  0  0  0  0  0  0  0  0  0  0
   -1.4048   -3.7607    2.8787 H   0  0  0  0  0  0  0  0  0  0  0  0
   -0.0313   -3.4339    2.0586 H   0  0  0  0  0  0  0  0  0  0  0  0
  1  5  1  0
  5  8  1  0
  1  2  1  0
  1  3  1  0
  1  4  1  0
  5  6  1  0
  5  7  1  0
  8  9  1  0
  8 10  1  0
  8 11  1  0
 12 16  1  0
 16 17  1  0
 12 13  1  0
 12 14  1  0
 12 15  1  0
 17 18  1  0
 17 19  1  0
 17 20  1  0
M  CHG  1   8   1
M  END
>  <PDB_ID>  (1460) 
pdb5ab4

>  <RESIDUE_NAME>  (1460) 
LYS   MET

>  <FRAG_NAME>  (1460) 
ETAM   MSM

>  <FRAG_ATOM_NUM>  (1460) 
fragi: 11  fragj: 9

>  <atom.prop.CHAIN_ID>  (1460) 
A A A A A A A A A A A Z Z Z Z Z Z Z Z Z

>  <atom.prop.IS_HEAVY_ATOM>  (1460) 
1 0 0 0 1 0 0 1 0 0 0 1 0 0 0 1 1 0 0 0

>  <DIFUSE_FUNC_ATOM>  (1460) 
n/a

>  <FINAL_SINGLE_POINT_ENERGY>  (1460) 
0

>  <NONCOV_INTER_ENERGY_QM>  (1460) 
0

>  <FF_Energy>  (1460) 
-3.03

>  <QM_Energy>  (1460) 
-10.5

>  <source>  (1460) 
ETAM_MSM

>  <Index>  (1460) 
9314

$$$$
ETAM-pdb5ab4-B-LYS-174:MSM-pdb5ab4-B-MET-330
     RDKit          3D

 20 18  0  0  0  0  0  0  0  0999 V2000
    1.2553    0.8645   -0.0000 C   0  0  0  0  0  0  0  0  0  0  0  0
    1.2109    1.4853    0.7735 H   0  0  0  0  0  0  0  0  0  0  0  0
    1.2910    1.3694   -0.8537 H   0  0  0  0  0  0  0  0  0  0  0  0
    2.1534    0.2533    0.0881 H   0  0  0  0  0  0  0  0  0  0  0  0
    0.0000    0.0000    0.0000 C   0  0  0  0  0  0  0  0  0  0  0  0
    0.0100   -0.5876   -0.8164 H   0  0  0  0  0  0  0  0  0  0  0  0
    0.0103   -0.5875    0.8161 H   0  0  0  0  0  0  0  0  0  0  0  0
   -1.2553    0.8111   -0.0000 N   0  0  0  0  0  4  0  0  0  0  0  0
   -1.8417    0.5082    0.7492 H   0  0  0  0  0  0  0  0  0  0  0  0
   -1.0239    1.7752    0.1217 H   0  0  0  0  0  0  0  0  0  0  0  0
   -1.7278    0.6857   -0.8708 H   0  0  0  0  0  0  0  0  0  0  0  0
    0.5852   -0.7524    4.5674 C   0  0  0  0  0  0  0  0  0  0  0  0
   -0.3620   -0.3870    4.6560 H   0  0  0  0  0  0  0  0  0  0  0  0
    1.2148    0.0309    4.7375 H   0  0  0  0  0  0  0  0  0  0  0  0
    0.7463   -1.5107    5.3336 H   0  0  0  0  0  0  0  0  0  0  0  0
    0.8512   -1.4393    2.9343 S   0  0  0  0  0  0  0  0  0  0  0  0
    0.0576   -3.0279    3.0904 C   0  0  0  0  0  0  0  0  0  0  0  0
    0.0166   -3.2943    4.0559 H   0  0  0  0  0  0  0  0  0  0  0  0
   -0.8739   -2.9800    2.7238 H   0  0  0  0  0  0  0  0  0  0  0  0
    0.5761   -3.7183    2.5815 H   0  0  0  0  0  0  0  0  0  0  0  0
  1  5  1  0
  5  8  1  0
  1  2  1  0
  1  3  1  0
  1  4  1  0
  5  6  1  0
  5  7  1  0
  8  9  1  0
  8 10  1  0
  8 11  1  0
 12 16  1  0
 16 17  1  0
 12 13  1  0
 12 14  1  0
 12 15  1  0
 17 18  1  0
 17 19  1  0
 17 20  1  0
M  CHG  1   8   1
M  END
>  <PDB_ID>  (1461) 
pdb5ab4

>  <RESIDUE_NAME>  (1461) 
LYS   MET

>  <FRAG_NAME>  (1461) 
ETAM   MSM

>  <FRAG_ATOM_NUM>  (1461) 
fragi: 11  fragj: 9

>  <atom.prop.CHAIN_ID>  (1461) 
A A A A A A A A A A A Z Z Z Z Z Z Z Z Z

>  <atom.prop.IS_HEAVY_ATOM>  (1461) 
1 0 0 0 1 0 0 1 0 0 0 1 0 0 0 1 1 0 0 0

>  <DIFUSE_FUNC_ATOM>  (1461) 
n/a

>  <FINAL_SINGLE_POINT_ENERGY>  (1461) 
0

>  <NONCOV_INTER_ENERGY_QM>  (1461) 
0

>  <FF_Energy>  (1461) 
-0.02

>  <QM_Energy>  (1461) 
-7.79

>  <source>  (1461) 
ETAM_MSM

>  <Index>  (1461) 
9315

$$$$
ETAM-pdb6a4u-D-LYS-169:MSM-pdb6a4u-D-MET-166
     RDKit          3D

 20 18  0  0  0  0  0  0  0  0999 V2000
    1.2448    0.8684    0.0000 C   0  0  0  0  0  0  0  0  0  0  0  0
    1.5681    0.9561    0.9275 H   0  0  0  0  0  0  0  0  0  0  0  0
    1.0192    1.7421   -0.3953 H   0  0  0  0  0  0  0  0  0  0  0  0
    2.0111    0.3842   -0.6054 H   0  0  0  0  0  0  0  0  0  0  0  0
    0.0000    0.0000    0.0000 C   0  0  0  0  0  0  0  0  0  0  0  0
    0.0197   -0.5925   -0.8156 H   0  0  0  0  0  0  0  0  0  0  0  0
    0.0199   -0.5927    0.8163 H   0  0  0  0  0  0  0  0  0  0  0  0
   -1.2448    0.7914    0.0000 N   0  0  0  0  0  4  0  0  0  0  0  0
   -1.0311    1.7578    0.1559 H   0  0  0  0  0  0  0  0  0  0  0  0
   -1.7071    0.6937   -0.8836 H   0  0  0  0  0  0  0  0  0  0  0  0
   -1.8523    0.4666    0.7275 H   0  0  0  0  0  0  0  0  0  0  0  0
   -1.5761    5.1989   -2.6614 C   0  0  0  0  0  0  0  0  0  0  0  0
   -0.9522    6.0006   -2.4817 H   0  0  0  0  0  0  0  0  0  0  0  0
   -2.4809    5.6252   -2.9155 H   0  0  0  0  0  0  0  0  0  0  0  0
   -1.1969    4.6571   -3.5279 H   0  0  0  0  0  0  0  0  0  0  0  0
   -1.7507    4.1853   -1.1687 S   0  0  0  0  0  0  0  0  0  0  0  0
   -2.9089    2.9428   -1.7230 C   0  0  0  0  0  0  0  0  0  0  0  0
   -2.8556    2.8514   -2.7188 H   0  0  0  0  0  0  0  0  0  0  0  0
   -2.6891    2.0622   -1.2986 H   0  0  0  0  0  0  0  0  0  0  0  0
   -3.8396    3.2096   -1.4654 H   0  0  0  0  0  0  0  0  0  0  0  0
  1  5  1  0
  5  8  1  0
  1  2  1  0
  1  3  1  0
  1  4  1  0
  5  6  1  0
  5  7  1  0
  8  9  1  0
  8 10  1  0
  8 11  1  0
 12 16  1  0
 16 17  1  0
 12 13  1  0
 12 14  1  0
 12 15  1  0
 17 18  1  0
 17 19  1  0
 17 20  1  0
M  CHG  1   8   1
M  END
>  <PDB_ID>  (1462) 
pdb6a4u

>  <RESIDUE_NAME>  (1462) 
LYS   MET

>  <FRAG_NAME>  (1462) 
ETAM   MSM

>  <FRAG_ATOM_NUM>  (1462) 
fragi: 11  fragj: 9

>  <atom.prop.CHAIN_ID>  (1462) 
A A A A A A A A A A A Z Z Z Z Z Z Z Z Z

>  <atom.prop.IS_HEAVY_ATOM>  (1462) 
1 0 0 0 1 0 0 1 0 0 0 1 0 0 0 1 1 0 0 0

>  <DIFUSE_FUNC_ATOM>  (1462) 
n/a

>  <FINAL_SINGLE_POINT_ENERGY>  (1462) 
0

>  <NONCOV_INTER_ENERGY_QM>  (1462) 
0

>  <FF_Energy>  (1462) 
0.06

>  <QM_Energy>  (1462) 
-5.3

>  <source>  (1462) 
ETAM_MSM

>  <Index>  (1462) 
9323

$$$$
ETAM-pdb6a2a-B-LYS-81:MSM-pdb6a2a-B-MET-76
     RDKit          3D

 20 18  0  0  0  0  0  0  0  0999 V2000
    1.2333    0.8746   -0.0000 C   0  0  0  0  0  0  0  0  0  0  0  0
    1.1450    1.5485    0.7385 H   0  0  0  0  0  0  0  0  0  0  0  0
    1.2792    1.3585   -0.8783 H   0  0  0  0  0  0  0  0  0  0  0  0
    2.1555    0.3116    0.1434 H   0  0  0  0  0  0  0  0  0  0  0  0
    0.0000    0.0000    0.0000 C   0  0  0  0  0  0  0  0  0  0  0  0
    0.0111   -0.5814   -0.8164 H   0  0  0  0  0  0  0  0  0  0  0  0
    0.0106   -0.5808    0.8162 H   0  0  0  0  0  0  0  0  0  0  0  0
   -1.2333    0.8202    0.0000 N   0  0  0  0  0  4  0  0  0  0  0  0
   -1.1056    1.6168   -0.5924 H   0  0  0  0  0  0  0  0  0  0  0  0
   -1.9996    0.2732   -0.3389 H   0  0  0  0  0  0  0  0  0  0  0  0
   -1.4314    1.1274    0.9315 H   0  0  0  0  0  0  0  0  0  0  0  0
   -0.8535    0.3417    3.2876 C   0  0  0  0  0  0  0  0  0  0  0  0
   -1.4084    1.0920    2.8242 H   0  0  0  0  0  0  0  0  0  0  0  0
    0.1027    0.4792    2.8967 H   0  0  0  0  0  0  0  0  0  0  0  0
   -0.8191    0.5554    4.3558 H   0  0  0  0  0  0  0  0  0  0  0  0
   -1.4938   -1.2932    2.8132 S   0  0  0  0  0  0  0  0  0  0  0  0
   -2.4311   -1.7935    4.2547 C   0  0  0  0  0  0  0  0  0  0  0  0
   -3.4037   -1.8461    4.0214 H   0  0  0  0  0  0  0  0  0  0  0  0
   -2.1160   -2.6911    4.5652 H   0  0  0  0  0  0  0  0  0  0  0  0
   -2.3020   -1.1245    4.9884 H   0  0  0  0  0  0  0  0  0  0  0  0
  1  5  1  0
  5  8  1  0
  1  2  1  0
  1  3  1  0
  1  4  1  0
  5  6  1  0
  5  7  1  0
  8  9  1  0
  8 10  1  0
  8 11  1  0
 12 16  1  0
 16 17  1  0
 12 13  1  0
 12 14  1  0
 12 15  1  0
 17 18  1  0
 17 19  1  0
 17 20  1  0
M  CHG  1   8   1
M  END
>  <PDB_ID>  (1463) 
pdb6a2a

>  <RESIDUE_NAME>  (1463) 
LYS   MET

>  <FRAG_NAME>  (1463) 
ETAM   MSM

>  <FRAG_ATOM_NUM>  (1463) 
fragi: 11  fragj: 9

>  <atom.prop.CHAIN_ID>  (1463) 
A A A A A A A A A A A Z Z Z Z Z Z Z Z Z

>  <atom.prop.IS_HEAVY_ATOM>  (1463) 
1 0 0 0 1 0 0 1 0 0 0 1 0 0 0 1 1 0 0 0

>  <DIFUSE_FUNC_ATOM>  (1463) 
n/a

>  <FINAL_SINGLE_POINT_ENERGY>  (1463) 
0

>  <NONCOV_INTER_ENERGY_QM>  (1463) 
0

>  <FF_Energy>  (1463) 
-1.23

>  <QM_Energy>  (1463) 
-8.6

>  <source>  (1463) 
ETAM_MSM

>  <Index>  (1463) 
9325

$$$$
ETAM-pdb5aez-A-LYS-16:MSM-pdb5aez-A-MET-1
     RDKit          3D

 20 18  0  0  0  0  0  0  0  0999 V2000
    1.2451    0.8593    0.0000 C   0  0  0  0  0  0  0  0  0  0  0  0
    1.2960    1.3508    0.8551 H   0  0  0  0  0  0  0  0  0  0  0  0
    1.2093    1.4751   -0.7709 H   0  0  0  0  0  0  0  0  0  0  0  0
    2.1261    0.2244   -0.0951 H   0  0  0  0  0  0  0  0  0  0  0  0
    0.0000    0.0000    0.0000 C   0  0  0  0  0  0  0  0  0  0  0  0
    0.0052   -0.5863   -0.8162 H   0  0  0  0  0  0  0  0  0  0  0  0
    0.0048   -0.5863    0.8159 H   0  0  0  0  0  0  0  0  0  0  0  0
   -1.2451    0.8200    0.0000 N   0  0  0  0  0  4  0  0  0  0  0  0
   -1.5836    0.9074    0.9364 H   0  0  0  0  0  0  0  0  0  0  0  0
   -1.0437    1.7262   -0.3701 H   0  0  0  0  0  0  0  0  0  0  0  0
   -1.9353    0.3719   -0.5664 H   0  0  0  0  0  0  0  0  0  0  0  0
   -3.7420    2.4374    2.7354 C   0  0  0  0  0  0  0  0  0  0  0  0
   -3.1078    2.8548    3.4319 H   0  0  0  0  0  0  0  0  0  0  0  0
   -4.6773    2.4939    3.1637 H   0  0  0  0  0  0  0  0  0  0  0  0
   -3.7312    3.0586    1.8397 H   0  0  0  0  0  0  0  0  0  0  0  0
   -3.2950    0.7261    2.4161 S   0  0  0  0  0  0  0  0  0  0  0  0
   -3.0961    0.0912    4.0852 C   0  0  0  0  0  0  0  0  0  0  0  0
   -3.4549    0.7565    4.7398 H   0  0  0  0  0  0  0  0  0  0  0  0
   -3.5973   -0.7698    4.1759 H   0  0  0  0  0  0  0  0  0  0  0  0
   -2.1258   -0.0667    4.2678 H   0  0  0  0  0  0  0  0  0  0  0  0
  1  5  1  0
  5  8  1  0
  1  2  1  0
  1  3  1  0
  1  4  1  0
  5  6  1  0
  5  7  1  0
  8  9  1  0
  8 10  1  0
  8 11  1  0
 12 16  1  0
 16 17  1  0
 12 13  1  0
 12 14  1  0
 12 15  1  0
 17 18  1  0
 17 19  1  0
 17 20  1  0
M  CHG  1   8   1
M  END
>  <PDB_ID>  (1464) 
pdb5aez

>  <RESIDUE_NAME>  (1464) 
LYS   MET

>  <FRAG_NAME>  (1464) 
ETAM   MSM

>  <FRAG_ATOM_NUM>  (1464) 
fragi: 11  fragj: 9

>  <atom.prop.CHAIN_ID>  (1464) 
A A A A A A A A A A A Z Z Z Z Z Z Z Z Z

>  <atom.prop.IS_HEAVY_ATOM>  (1464) 
1 0 0 0 1 0 0 1 0 0 0 1 0 0 0 1 1 0 0 0

>  <DIFUSE_FUNC_ATOM>  (1464) 
n/a

>  <FINAL_SINGLE_POINT_ENERGY>  (1464) 
0

>  <NONCOV_INTER_ENERGY_QM>  (1464) 
0

>  <FF_Energy>  (1464) 
-5.23

>  <QM_Energy>  (1464) 
-16.71

>  <source>  (1464) 
ETAM_MSM

>  <Index>  (1464) 
9333

$$$$
ETAM-pdb5af0-A-LYS-171:MSM-pdb5af0-A-MET-181
     RDKit          3D

 20 18  0  0  0  0  0  0  0  0999 V2000
    1.2544    0.8620   -0.0000 C   0  0  0  0  0  0  0  0  0  0  0  0
    1.2198    1.4683    0.7837 H   0  0  0  0  0  0  0  0  0  0  0  0
    1.2815    1.3781   -0.8455 H   0  0  0  0  0  0  0  0  0  0  0  0
    2.1462    0.2389    0.0687 H   0  0  0  0  0  0  0  0  0  0  0  0
    0.0000    0.0000    0.0000 C   0  0  0  0  0  0  0  0  0  0  0  0
    0.0105   -0.5894   -0.8160 H   0  0  0  0  0  0  0  0  0  0  0  0
    0.0103   -0.5902    0.8166 H   0  0  0  0  0  0  0  0  0  0  0  0
   -1.2544    0.8069   -0.0000 N   0  0  0  0  0  4  0  0  0  0  0  0
   -1.8554    0.4828   -0.7298 H   0  0  0  0  0  0  0  0  0  0  0  0
   -1.7128    0.7052    0.8821 H   0  0  0  0  0  0  0  0  0  0  0  0
   -1.0286    1.7678   -0.1524 H   0  0  0  0  0  0  0  0  0  0  0  0
   -1.6545    4.0242    1.8223 C   0  0  0  0  0  0  0  0  0  0  0  0
   -1.9513    3.4220    2.6076 H   0  0  0  0  0  0  0  0  0  0  0  0
   -2.1563    3.6429    1.0035 H   0  0  0  0  0  0  0  0  0  0  0  0
   -2.0285    5.0307    2.0098 H   0  0  0  0  0  0  0  0  0  0  0  0
    0.1405    3.9126    1.5766 S   0  0  0  0  0  0  0  0  0  0  0  0
    0.4291    5.1625    0.3314 C   0  0  0  0  0  0  0  0  0  0  0  0
   -0.4457    5.4726   -0.0447 H   0  0  0  0  0  0  0  0  0  0  0  0
    0.9079    5.9421    0.7400 H   0  0  0  0  0  0  0  0  0  0  0  0
    0.9884    4.7810   -0.4062 H   0  0  0  0  0  0  0  0  0  0  0  0
  1  5  1  0
  5  8  1  0
  1  2  1  0
  1  3  1  0
  1  4  1  0
  5  6  1  0
  5  7  1  0
  8  9  1  0
  8 10  1  0
  8 11  1  0
 12 16  1  0
 16 17  1  0
 12 13  1  0
 12 14  1  0
 12 15  1  0
 17 18  1  0
 17 19  1  0
 17 20  1  0
M  CHG  1   8   1
M  END
>  <PDB_ID>  (1465) 
pdb5af0

>  <RESIDUE_NAME>  (1465) 
LYS   MET

>  <FRAG_NAME>  (1465) 
ETAM   MSM

>  <FRAG_ATOM_NUM>  (1465) 
fragi: 11  fragj: 9

>  <atom.prop.CHAIN_ID>  (1465) 
A A A A A A A A A A A Z Z Z Z Z Z Z Z Z

>  <atom.prop.IS_HEAVY_ATOM>  (1465) 
1 0 0 0 1 0 0 1 0 0 0 1 0 0 0 1 1 0 0 0

>  <DIFUSE_FUNC_ATOM>  (1465) 
n/a

>  <FINAL_SINGLE_POINT_ENERGY>  (1465) 
0

>  <NONCOV_INTER_ENERGY_QM>  (1465) 
0

>  <FF_Energy>  (1465) 
-3.36

>  <QM_Energy>  (1465) 
-9.04

>  <source>  (1465) 
ETAM_MSM

>  <Index>  (1465) 
9337

$$$$
ETAM-pdb6abx-A-LYS-353:MSM-pdb6abx-A-MET-1
     RDKit          3D

 20 18  0  0  0  0  0  0  0  0999 V2000
    1.2462    0.8831   -0.0000 C   0  0  0  0  0  0  0  0  0  0  0  0
    1.1918    1.5016    0.7744 H   0  0  0  0  0  0  0  0  0  0  0  0
    1.2720    1.3883   -0.8535 H   0  0  0  0  0  0  0  0  0  0  0  0
    2.1503    0.2805    0.0867 H   0  0  0  0  0  0  0  0  0  0  0  0
    0.0000    0.0000    0.0000 C   0  0  0  0  0  0  0  0  0  0  0  0
    0.0201   -0.5831   -0.8163 H   0  0  0  0  0  0  0  0  0  0  0  0
    0.0191   -0.5833    0.8161 H   0  0  0  0  0  0  0  0  0  0  0  0
   -1.2462    0.8059    0.0000 N   0  0  0  0  0  4  0  0  0  0  0  0
   -1.4501    1.1050    0.9329 H   0  0  0  0  0  0  0  0  0  0  0  0
   -1.1258    1.6060   -0.5879 H   0  0  0  0  0  0  0  0  0  0  0  0
   -2.0031    0.2502   -0.3453 H   0  0  0  0  0  0  0  0  0  0  0  0
   -5.2095    0.5901    0.8970 C   0  0  0  0  0  0  0  0  0  0  0  0
   -4.8573    0.7255   -0.0653 H   0  0  0  0  0  0  0  0  0  0  0  0
   -6.1509    1.0173    0.8869 H   0  0  0  0  0  0  0  0  0  0  0  0
   -5.3255   -0.4804    1.0664 H   0  0  0  0  0  0  0  0  0  0  0  0
   -4.1326    1.4608    2.0939 S   0  0  0  0  0  0  0  0  0  0  0  0
   -4.0421    3.0983    1.3666 C   0  0  0  0  0  0  0  0  0  0  0  0
   -3.1117    3.4548    1.4611 H   0  0  0  0  0  0  0  0  0  0  0  0
   -4.2820    3.0475    0.3962 H   0  0  0  0  0  0  0  0  0  0  0  0
   -4.6816    3.7086    1.8354 H   0  0  0  0  0  0  0  0  0  0  0  0
  1  5  1  0
  5  8  1  0
  1  2  1  0
  1  3  1  0
  1  4  1  0
  5  6  1  0
  5  7  1  0
  8  9  1  0
  8 10  1  0
  8 11  1  0
 12 16  1  0
 16 17  1  0
 12 13  1  0
 12 14  1  0
 12 15  1  0
 17 18  1  0
 17 19  1  0
 17 20  1  0
M  CHG  1   8   1
M  END
>  <PDB_ID>  (1466) 
pdb6abx

>  <RESIDUE_NAME>  (1466) 
LYS   MET

>  <FRAG_NAME>  (1466) 
ETAM   MSM

>  <FRAG_ATOM_NUM>  (1466) 
fragi: 11  fragj: 9

>  <atom.prop.CHAIN_ID>  (1466) 
A A A A A A A A A A A Z Z Z Z Z Z Z Z Z

>  <atom.prop.IS_HEAVY_ATOM>  (1466) 
1 0 0 0 1 0 0 1 0 0 0 1 0 0 0 1 1 0 0 0

>  <DIFUSE_FUNC_ATOM>  (1466) 
n/a

>  <FINAL_SINGLE_POINT_ENERGY>  (1466) 
0

>  <NONCOV_INTER_ENERGY_QM>  (1466) 
0

>  <FF_Energy>  (1466) 
-3.46

>  <QM_Energy>  (1466) 
-10.02

>  <source>  (1466) 
ETAM_MSM

>  <Index>  (1466) 
9348

$$$$
ETAM-pdb6a73-B-LYS-93:MSM-pdb6a73-B-MET-89
     RDKit          3D

 20 18  0  0  0  0  0  0  0  0999 V2000
    1.2521    0.8625    0.0000 C   0  0  0  0  0  0  0  0  0  0  0  0
    1.3207    1.3187   -0.8840 H   0  0  0  0  0  0  0  0  0  0  0  0
    2.0420    0.2718    0.1413 H   0  0  0  0  0  0  0  0  0  0  0  0
    1.2240    1.6152    0.7879 H   0  0  0  0  0  0  0  0  0  0  0  0
    0.0000    0.0000    0.0000 C   0  0  0  0  0  0  0  0  0  0  0  0
    0.0096   -0.5878   -0.8158 H   0  0  0  0  0  0  0  0  0  0  0  0
    0.0094   -0.5882    0.8162 H   0  0  0  0  0  0  0  0  0  0  0  0
   -1.2521    0.8115   -0.0000 N   0  0  0  0  0  4  0  0  0  0  0  0
   -1.0447    1.7375    0.3134 H   0  0  0  0  0  0  0  0  0  0  0  0
   -1.6233    0.8449   -0.9272 H   0  0  0  0  0  0  0  0  0  0  0  0
   -1.9178    0.3899    0.6139 H   0  0  0  0  0  0  0  0  0  0  0  0
   -2.3983   -1.6772   -3.4836 C   0  0  0  0  0  0  0  0  0  0  0  0
   -2.7722   -1.6200   -4.4329 H   0  0  0  0  0  0  0  0  0  0  0  0
   -2.3572   -2.6728   -3.2562 H   0  0  0  0  0  0  0  0  0  0  0  0
   -1.3851   -1.2753   -3.4830 H   0  0  0  0  0  0  0  0  0  0  0  0
   -3.4710   -0.8029   -2.3222 S   0  0  0  0  0  0  0  0  0  0  0  0
   -4.2168    0.4078   -3.4086 C   0  0  0  0  0  0  0  0  0  0  0  0
   -3.8063    1.3056   -3.2436 H   0  0  0  0  0  0  0  0  0  0  0  0
   -4.0645    0.1438   -4.3624 H   0  0  0  0  0  0  0  0  0  0  0  0
   -5.2014    0.4569   -3.2325 H   0  0  0  0  0  0  0  0  0  0  0  0
  1  5  1  0
  5  8  1  0
  1  2  1  0
  1  3  1  0
  1  4  1  0
  5  6  1  0
  5  7  1  0
  8  9  1  0
  8 10  1  0
  8 11  1  0
 12 16  1  0
 16 17  1  0
 12 13  1  0
 12 14  1  0
 12 15  1  0
 17 18  1  0
 17 19  1  0
 17 20  1  0
M  CHG  1   8   1
M  END
>  <PDB_ID>  (1467) 
pdb6a73

>  <RESIDUE_NAME>  (1467) 
LYS   MET

>  <FRAG_NAME>  (1467) 
ETAM   MSM

>  <FRAG_ATOM_NUM>  (1467) 
fragi: 11  fragj: 9

>  <atom.prop.CHAIN_ID>  (1467) 
A A A A A A A A A A A Z Z Z Z Z Z Z Z Z

>  <atom.prop.IS_HEAVY_ATOM>  (1467) 
1 0 0 0 1 0 0 1 0 0 0 1 0 0 0 1 1 0 0 0

>  <DIFUSE_FUNC_ATOM>  (1467) 
n/a

>  <FINAL_SINGLE_POINT_ENERGY>  (1467) 
0

>  <NONCOV_INTER_ENERGY_QM>  (1467) 
0

>  <FF_Energy>  (1467) 
-4.77

>  <QM_Energy>  (1467) 
-12.92

>  <source>  (1467) 
ETAM_MSM

>  <Index>  (1467) 
9356

$$$$
ETAM-pdb6a1k-B-LYS-266:MSM-pdb6a1k-A-MET-246
     RDKit          3D

 20 18  0  0  0  0  0  0  0  0999 V2000
    1.1736    0.9328    0.0000 C   0  0  0  0  0  0  0  0  0  0  0  0
    1.4588    1.1094   -0.9259 H   0  0  0  0  0  0  0  0  0  0  0  0
    1.8995    0.5541    0.5459 H   0  0  0  0  0  0  0  0  0  0  0  0
    0.8750    1.8813    0.4465 H   0  0  0  0  0  0  0  0  0  0  0  0
    0.0000    0.0000    0.0000 C   0  0  0  0  0  0  0  0  0  0  0  0
    0.0207   -0.5490   -0.8158 H   0  0  0  0  0  0  0  0  0  0  0  0
    0.0204   -0.5497    0.8165 H   0  0  0  0  0  0  0  0  0  0  0  0
   -1.1736    0.8569   -0.0000 N   0  0  0  0  0  4  0  0  0  0  0  0
   -1.3358    1.2269   -0.9215 H   0  0  0  0  0  0  0  0  0  0  0  0
   -1.9856    0.3370    0.2846 H   0  0  0  0  0  0  0  0  0  0  0  0
   -1.0450    1.6246    0.6366 H   0  0  0  0  0  0  0  0  0  0  0  0
   -2.0291   -0.9564   -4.0933 C   0  0  0  0  0  0  0  0  0  0  0  0
   -1.8360   -1.8482   -4.5251 H   0  0  0  0  0  0  0  0  0  0  0  0
   -1.3949   -0.2768   -4.4895 H   0  0  0  0  0  0  0  0  0  0  0  0
   -3.0555   -0.6648   -4.3158 H   0  0  0  0  0  0  0  0  0  0  0  0
   -1.8327   -1.0517   -2.3143 S   0  0  0  0  0  0  0  0  0  0  0  0
   -3.1295   -2.2166   -1.9330 C   0  0  0  0  0  0  0  0  0  0  0  0
   -2.7729   -2.9365   -1.3330 H   0  0  0  0  0  0  0  0  0  0  0  0
   -3.8834   -1.7455   -1.4699 H   0  0  0  0  0  0  0  0  0  0  0  0
   -3.4715   -2.6321   -2.7785 H   0  0  0  0  0  0  0  0  0  0  0  0
  1  5  1  0
  5  8  1  0
  1  2  1  0
  1  3  1  0
  1  4  1  0
  5  6  1  0
  5  7  1  0
  8  9  1  0
  8 10  1  0
  8 11  1  0
 12 16  1  0
 16 17  1  0
 12 13  1  0
 12 14  1  0
 12 15  1  0
 17 18  1  0
 17 19  1  0
 17 20  1  0
M  CHG  1   8   1
M  END
>  <PDB_ID>  (1468) 
pdb6a1k

>  <RESIDUE_NAME>  (1468) 
LYS   MET

>  <FRAG_NAME>  (1468) 
ETAM   MSM

>  <FRAG_ATOM_NUM>  (1468) 
fragi: 11  fragj: 9

>  <atom.prop.CHAIN_ID>  (1468) 
A A A A A A A A A A A Z Z Z Z Z Z Z Z Z

>  <atom.prop.IS_HEAVY_ATOM>  (1468) 
1 0 0 0 1 0 0 1 0 0 0 1 0 0 0 1 1 0 0 0

>  <DIFUSE_FUNC_ATOM>  (1468) 
n/a

>  <FINAL_SINGLE_POINT_ENERGY>  (1468) 
0

>  <NONCOV_INTER_ENERGY_QM>  (1468) 
0

>  <FF_Energy>  (1468) 
1.08

>  <QM_Energy>  (1468) 
-11.41

>  <source>  (1468) 
ETAM_MSM

>  <Index>  (1468) 
9360

$$$$
ETAM-pdb6a1k-B-LYS-273:MSM-pdb6a1k-A-MET-245
     RDKit          3D

 20 18  0  0  0  0  0  0  0  0999 V2000
    1.2326    0.8741    0.0000 C   0  0  0  0  0  0  0  0  0  0  0  0
    1.2150    1.4545    0.8157 H   0  0  0  0  0  0  0  0  0  0  0  0
    1.2143    1.4528   -0.8174 H   0  0  0  0  0  0  0  0  0  0  0  0
    2.1579    0.2981    0.0003 H   0  0  0  0  0  0  0  0  0  0  0  0
    0.0000    0.0000    0.0000 C   0  0  0  0  0  0  0  0  0  0  0  0
    0.0081   -0.5799   -0.8155 H   0  0  0  0  0  0  0  0  0  0  0  0
    0.0075   -0.5788    0.8176 H   0  0  0  0  0  0  0  0  0  0  0  0
   -1.2326    0.8266   -0.0000 N   0  0  0  0  0  4  0  0  0  0  0  0
   -2.0311    0.2344   -0.1009 H   0  0  0  0  0  0  0  0  0  0  0  0
   -1.2967    1.3299    0.8618 H   0  0  0  0  0  0  0  0  0  0  0  0
   -1.1989    1.4745   -0.7626 H   0  0  0  0  0  0  0  0  0  0  0  0
   -0.0123   -4.6354   -2.4208 C   0  0  0  0  0  0  0  0  0  0  0  0
    0.3695   -5.4016   -1.8700 H   0  0  0  0  0  0  0  0  0  0  0  0
   -0.1466   -4.9926   -3.3644 H   0  0  0  0  0  0  0  0  0  0  0  0
   -0.9843   -4.3624   -2.0100 H   0  0  0  0  0  0  0  0  0  0  0  0
    1.1096   -3.2247   -2.4225 S   0  0  0  0  0  0  0  0  0  0  0  0
    1.2017   -2.9126   -0.6611 C   0  0  0  0  0  0  0  0  0  0  0  0
    0.6972   -3.6226   -0.1675 H   0  0  0  0  0  0  0  0  0  0  0  0
    2.1593   -2.9208   -0.3684 H   0  0  0  0  0  0  0  0  0  0  0  0
    0.8007   -2.0189   -0.4567 H   0  0  0  0  0  0  0  0  0  0  0  0
  1  5  1  0
  5  8  1  0
  1  2  1  0
  1  3  1  0
  1  4  1  0
  5  6  1  0
  5  7  1  0
  8  9  1  0
  8 10  1  0
  8 11  1  0
 12 16  1  0
 16 17  1  0
 12 13  1  0
 12 14  1  0
 12 15  1  0
 17 18  1  0
 17 19  1  0
 17 20  1  0
M  CHG  1   8   1
M  END
>  <PDB_ID>  (1469) 
pdb6a1k

>  <RESIDUE_NAME>  (1469) 
LYS   MET

>  <FRAG_NAME>  (1469) 
ETAM   MSM

>  <FRAG_ATOM_NUM>  (1469) 
fragi: 11  fragj: 9

>  <atom.prop.CHAIN_ID>  (1469) 
A A A A A A A A A A A Z Z Z Z Z Z Z Z Z

>  <atom.prop.IS_HEAVY_ATOM>  (1469) 
1 0 0 0 1 0 0 1 0 0 0 1 0 0 0 1 1 0 0 0

>  <DIFUSE_FUNC_ATOM>  (1469) 
n/a

>  <FINAL_SINGLE_POINT_ENERGY>  (1469) 
0

>  <NONCOV_INTER_ENERGY_QM>  (1469) 
0

>  <FF_Energy>  (1469) 
11.68

>  <QM_Energy>  (1469) 
1.34

>  <source>  (1469) 
ETAM_MSM

>  <Index>  (1469) 
9361

$$$$
ETAM-pdb6ahp-B-LYS-158:MSM-pdb6ahp-B-MET-93
     RDKit          3D

 20 18  0  0  0  0  0  0  0  0999 V2000
    1.2239    0.8942    0.0000 C   0  0  0  0  0  0  0  0  0  0  0  0
    2.0363    0.3256    0.0896 H   0  0  0  0  0  0  0  0  0  0  0  0
    1.1597    1.5256    0.7669 H   0  0  0  0  0  0  0  0  0  0  0  0
    1.3016    1.4706   -0.9219 H   0  0  0  0  0  0  0  0  0  0  0  0
    0.0000    0.0000    0.0000 C   0  0  0  0  0  0  0  0  0  0  0  0
    0.0133   -0.5701   -0.8163 H   0  0  0  0  0  0  0  0  0  0  0  0
    0.0130   -0.5694    0.8158 H   0  0  0  0  0  0  0  0  0  0  0  0
   -1.2239    0.8344   -0.0000 N   0  0  0  0  0  4  0  0  0  0  0  0
   -2.0050    0.2835    0.2967 H   0  0  0  0  0  0  0  0  0  0  0  0
   -1.1037    1.6052    0.6268 H   0  0  0  0  0  0  0  0  0  0  0  0
   -1.3932    1.1811   -0.9231 H   0  0  0  0  0  0  0  0  0  0  0  0
   -2.6109    1.4995   -4.2198 C   0  0  0  0  0  0  0  0  0  0  0  0
   -2.8050    2.4524   -3.9976 H   0  0  0  0  0  0  0  0  0  0  0  0
   -3.3035    1.1489   -4.8457 H   0  0  0  0  0  0  0  0  0  0  0  0
   -1.6235    1.4188   -4.6745 H   0  0  0  0  0  0  0  0  0  0  0  0
   -2.5981    0.4883   -2.6730 S   0  0  0  0  0  0  0  0  0  0  0  0
   -4.3366    0.1131   -2.5370 C   0  0  0  0  0  0  0  0  0  0  0  0
   -4.8778    0.8800   -2.8889 H   0  0  0  0  0  0  0  0  0  0  0  0
   -4.5486   -0.7100   -3.0678 H   0  0  0  0  0  0  0  0  0  0  0  0
   -4.5762   -0.0445   -1.5761 H   0  0  0  0  0  0  0  0  0  0  0  0
  1  5  1  0
  5  8  1  0
  1  2  1  0
  1  3  1  0
  1  4  1  0
  5  6  1  0
  5  7  1  0
  8  9  1  0
  8 10  1  0
  8 11  1  0
 12 16  1  0
 16 17  1  0
 12 13  1  0
 12 14  1  0
 12 15  1  0
 17 18  1  0
 17 19  1  0
 17 20  1  0
M  CHG  1   8   1
M  END
>  <PDB_ID>  (1470) 
pdb6ahp

>  <RESIDUE_NAME>  (1470) 
LYS   MET

>  <FRAG_NAME>  (1470) 
ETAM   MSM

>  <FRAG_ATOM_NUM>  (1470) 
fragi: 11  fragj: 9

>  <atom.prop.CHAIN_ID>  (1470) 
A A A A A A A A A A A Z Z Z Z Z Z Z Z Z

>  <atom.prop.IS_HEAVY_ATOM>  (1470) 
1 0 0 0 1 0 0 1 0 0 0 1 0 0 0 1 1 0 0 0

>  <DIFUSE_FUNC_ATOM>  (1470) 
n/a

>  <FINAL_SINGLE_POINT_ENERGY>  (1470) 
0

>  <NONCOV_INTER_ENERGY_QM>  (1470) 
0

>  <FF_Energy>  (1470) 
-3.96

>  <QM_Energy>  (1470) 
-14.78

>  <source>  (1470) 
ETAM_MSM

>  <Index>  (1470) 
9368

$$$$
ETAM-pdb5awo-A-LYS-465:MSM-pdb5awo-A-MET-606
     RDKit          3D

 20 18  0  0  0  0  0  0  0  0999 V2000
    1.2377    0.8815    0.0000 C   0  0  0  0  0  0  0  0  0  0  0  0
    1.3167    1.3106    0.8950 H   0  0  0  0  0  0  0  0  0  0  0  0
    1.1279    1.5764   -0.7053 H   0  0  0  0  0  0  0  0  0  0  0  0
    2.1376    0.3004   -0.2021 H   0  0  0  0  0  0  0  0  0  0  0  0
    0.0000    0.0000    0.0000 C   0  0  0  0  0  0  0  0  0  0  0  0
    0.0134   -0.5787   -0.8161 H   0  0  0  0  0  0  0  0  0  0  0  0
    0.0127   -0.5789    0.8168 H   0  0  0  0  0  0  0  0  0  0  0  0
   -1.2377    0.8212   -0.0000 N   0  0  0  0  0  4  0  0  0  0  0  0
   -1.6828    0.7521   -0.8924 H   0  0  0  0  0  0  0  0  0  0  0  0
   -1.8583    0.4874    0.7092 H   0  0  0  0  0  0  0  0  0  0  0  0
   -1.0034    1.7760    0.1833 H   0  0  0  0  0  0  0  0  0  0  0  0
   -1.5871    4.7341   -1.8388 C   0  0  0  0  0  0  0  0  0  0  0  0
   -0.9958    4.2084   -2.4821 H   0  0  0  0  0  0  0  0  0  0  0  0
   -0.9824    5.0358   -1.0745 H   0  0  0  0  0  0  0  0  0  0  0  0
   -1.9623    5.6175   -2.3554 H   0  0  0  0  0  0  0  0  0  0  0  0
   -2.9343    3.7010   -1.2191 S   0  0  0  0  0  0  0  0  0  0  0  0
   -3.5580    2.9827   -2.7410 C   0  0  0  0  0  0  0  0  0  0  0  0
   -4.5330    2.7834   -2.6409 H   0  0  0  0  0  0  0  0  0  0  0  0
   -3.4261    3.6283   -3.4939 H   0  0  0  0  0  0  0  0  0  0  0  0
   -3.0633    2.1360   -2.9374 H   0  0  0  0  0  0  0  0  0  0  0  0
  1  5  1  0
  5  8  1  0
  1  2  1  0
  1  3  1  0
  1  4  1  0
  5  6  1  0
  5  7  1  0
  8  9  1  0
  8 10  1  0
  8 11  1  0
 12 16  1  0
 16 17  1  0
 12 13  1  0
 12 14  1  0
 12 15  1  0
 17 18  1  0
 17 19  1  0
 17 20  1  0
M  CHG  1   8   1
M  END
>  <PDB_ID>  (1471) 
pdb5awo

>  <RESIDUE_NAME>  (1471) 
LYS   MET

>  <FRAG_NAME>  (1471) 
ETAM   MSM

>  <FRAG_ATOM_NUM>  (1471) 
fragi: 11  fragj: 9

>  <atom.prop.CHAIN_ID>  (1471) 
A A A A A A A A A A A Z Z Z Z Z Z Z Z Z

>  <atom.prop.IS_HEAVY_ATOM>  (1471) 
1 0 0 0 1 0 0 1 0 0 0 1 0 0 0 1 1 0 0 0

>  <DIFUSE_FUNC_ATOM>  (1471) 
n/a

>  <FINAL_SINGLE_POINT_ENERGY>  (1471) 
0

>  <NONCOV_INTER_ENERGY_QM>  (1471) 
0

>  <FF_Energy>  (1471) 
-4.22

>  <QM_Energy>  (1471) 
-10.78

>  <source>  (1471) 
ETAM_MSM

>  <Index>  (1471) 
9382

$$$$
ETAM-pdb5ay9-A-LYS-54:MSM-pdb5ay9-A-MET-1
     RDKit          3D

 20 18  0  0  0  0  0  0  0  0999 V2000
    1.2630    0.8841    0.0000 C   0  0  0  0  0  0  0  0  0  0  0  0
    1.2901    1.3891   -0.8544 H   0  0  0  0  0  0  0  0  0  0  0  0
    2.0558    0.2944    0.0845 H   0  0  0  0  0  0  0  0  0  0  0  0
    1.2621    1.5936    0.8276 H   0  0  0  0  0  0  0  0  0  0  0  0
    0.0000    0.0000    0.0000 C   0  0  0  0  0  0  0  0  0  0  0  0
    0.0213   -0.5833   -0.8166 H   0  0  0  0  0  0  0  0  0  0  0  0
    0.0205   -0.5840    0.8160 H   0  0  0  0  0  0  0  0  0  0  0  0
   -1.2630    0.8023    0.0000 N   0  0  0  0  0  4  0  0  0  0  0  0
   -1.2414    1.4477    0.7609 H   0  0  0  0  0  0  0  0  0  0  0  0
   -1.3352    1.2997   -0.8623 H   0  0  0  0  0  0  0  0  0  0  0  0
   -2.0419    0.1865    0.1011 H   0  0  0  0  0  0  0  0  0  0  0  0
   -2.8728    1.2782    3.2554 C   0  0  0  0  0  0  0  0  0  0  0  0
   -3.4836    1.7579    3.8805 H   0  0  0  0  0  0  0  0  0  0  0  0
   -1.9832    1.7272    3.2385 H   0  0  0  0  0  0  0  0  0  0  0  0
   -2.7403    0.2577    3.6150 H   0  0  0  0  0  0  0  0  0  0  0  0
   -3.5857    1.1753    1.5949 S   0  0  0  0  0  0  0  0  0  0  0  0
   -5.1802    1.9589    1.8032 C   0  0  0  0  0  0  0  0  0  0  0  0
   -5.0791    2.7852    2.3595 H   0  0  0  0  0  0  0  0  0  0  0  0
   -5.5536    2.2065    0.9071 H   0  0  0  0  0  0  0  0  0  0  0  0
   -5.8091    1.3274    2.2605 H   0  0  0  0  0  0  0  0  0  0  0  0
  1  5  1  0
  5  8  1  0
  1  2  1  0
  1  3  1  0
  1  4  1  0
  5  6  1  0
  5  7  1  0
  8  9  1  0
  8 10  1  0
  8 11  1  0
 12 16  1  0
 16 17  1  0
 12 13  1  0
 12 14  1  0
 12 15  1  0
 17 18  1  0
 17 19  1  0
 17 20  1  0
M  CHG  1   8   1
M  END
>  <PDB_ID>  (1472) 
pdb5ay9

>  <RESIDUE_NAME>  (1472) 
LYS   MET

>  <FRAG_NAME>  (1472) 
ETAM   MSM

>  <FRAG_ATOM_NUM>  (1472) 
fragi: 11  fragj: 9

>  <atom.prop.CHAIN_ID>  (1472) 
A A A A A A A A A A A Z Z Z Z Z Z Z Z Z

>  <atom.prop.IS_HEAVY_ATOM>  (1472) 
1 0 0 0 1 0 0 1 0 0 0 1 0 0 0 1 1 0 0 0

>  <DIFUSE_FUNC_ATOM>  (1472) 
n/a

>  <FINAL_SINGLE_POINT_ENERGY>  (1472) 
0

>  <NONCOV_INTER_ENERGY_QM>  (1472) 
0

>  <FF_Energy>  (1472) 
0.57

>  <QM_Energy>  (1472) 
-10.34

>  <source>  (1472) 
ETAM_MSM

>  <Index>  (1472) 
9386

$$$$
ETAM-pdb6aph-A-LYS-147:MSM-pdb6aph-A-MET-143
     RDKit          3D

 20 18  0  0  0  0  0  0  0  0999 V2000
    1.2328    0.8746    0.0000 C   0  0  0  0  0  0  0  0  0  0  0  0
    1.2149    1.4529    0.8170 H   0  0  0  0  0  0  0  0  0  0  0  0
    1.2138    1.4532   -0.8166 H   0  0  0  0  0  0  0  0  0  0  0  0
    2.1575    0.2975    0.0010 H   0  0  0  0  0  0  0  0  0  0  0  0
    0.0000    0.0000    0.0000 C   0  0  0  0  0  0  0  0  0  0  0  0
    0.0077   -0.5781   -0.8160 H   0  0  0  0  0  0  0  0  0  0  0  0
    0.0067   -0.5781    0.8167 H   0  0  0  0  0  0  0  0  0  0  0  0
   -1.2328    0.8280    0.0000 N   0  0  0  0  0  4  0  0  0  0  0  0
   -1.8658    0.4841   -0.6929 H   0  0  0  0  0  0  0  0  0  0  0  0
   -1.6658    0.7817    0.9009 H   0  0  0  0  0  0  0  0  0  0  0  0
   -0.9960    1.7774   -0.2074 H   0  0  0  0  0  0  0  0  0  0  0  0
    1.7741    3.6733    3.5187 C   0  0  0  0  0  0  0  0  0  0  0  0
    1.4323    4.5744    3.8565 H   0  0  0  0  0  0  0  0  0  0  0  0
    2.7649    3.8075    3.3069 H   0  0  0  0  0  0  0  0  0  0  0  0
    1.6971    2.9557    4.3355 H   0  0  0  0  0  0  0  0  0  0  0  0
    0.8622    3.1501    2.0382 S   0  0  0  0  0  0  0  0  0  0  0  0
   -0.7849    3.6857    2.5238 C   0  0  0  0  0  0  0  0  0  0  0  0
   -0.8205    4.6847    2.5311 H   0  0  0  0  0  0  0  0  0  0  0  0
   -1.4551    3.3310    1.8716 H   0  0  0  0  0  0  0  0  0  0  0  0
   -0.9910    3.3374    3.4378 H   0  0  0  0  0  0  0  0  0  0  0  0
  1  5  1  0
  5  8  1  0
  1  2  1  0
  1  3  1  0
  1  4  1  0
  5  6  1  0
  5  7  1  0
  8  9  1  0
  8 10  1  0
  8 11  1  0
 12 16  1  0
 16 17  1  0
 12 13  1  0
 12 14  1  0
 12 15  1  0
 17 18  1  0
 17 19  1  0
 17 20  1  0
M  CHG  1   8   1
M  END
>  <PDB_ID>  (1473) 
pdb6aph

>  <RESIDUE_NAME>  (1473) 
LYS   MET

>  <FRAG_NAME>  (1473) 
ETAM   MSM

>  <FRAG_ATOM_NUM>  (1473) 
fragi: 11  fragj: 9

>  <atom.prop.CHAIN_ID>  (1473) 
A A A A A A A A A A A Z Z Z Z Z Z Z Z Z

>  <atom.prop.IS_HEAVY_ATOM>  (1473) 
1 0 0 0 1 0 0 1 0 0 0 1 0 0 0 1 1 0 0 0

>  <DIFUSE_FUNC_ATOM>  (1473) 
n/a

>  <FINAL_SINGLE_POINT_ENERGY>  (1473) 
0

>  <NONCOV_INTER_ENERGY_QM>  (1473) 
0

>  <FF_Energy>  (1473) 
19.52

>  <QM_Energy>  (1473) 
-0.38

>  <source>  (1473) 
ETAM_MSM

>  <Index>  (1473) 
9388

$$$$
ETAM-pdb5azw-A-LYS-104:MSM-pdb5azw-A-MET-98
     RDKit          3D

 20 18  0  0  0  0  0  0  0  0999 V2000
    1.2409    0.8737    0.0000 C   0  0  0  0  0  0  0  0  0  0  0  0
    1.2577    1.4071    0.8357 H   0  0  0  0  0  0  0  0  0  0  0  0
    1.2174    1.4653   -0.7954 H   0  0  0  0  0  0  0  0  0  0  0  0
    2.1448    0.2662   -0.0438 H   0  0  0  0  0  0  0  0  0  0  0  0
    0.0000    0.0000    0.0000 C   0  0  0  0  0  0  0  0  0  0  0  0
    0.0135   -0.5841   -0.8157 H   0  0  0  0  0  0  0  0  0  0  0  0
    0.0129   -0.5839    0.8161 H   0  0  0  0  0  0  0  0  0  0  0  0
   -1.2409    0.8127    0.0000 N   0  0  0  0  0  4  0  0  0  0  0  0
   -1.0589    1.7001    0.4232 H   0  0  0  0  0  0  0  0  0  0  0  0
   -1.5503    0.9500   -0.9418 H   0  0  0  0  0  0  0  0  0  0  0  0
   -1.9520    0.3371    0.5182 H   0  0  0  0  0  0  0  0  0  0  0  0
   -4.0225   -1.5287    2.7529 C   0  0  0  0  0  0  0  0  0  0  0  0
   -4.9047   -1.8820    3.1264 H   0  0  0  0  0  0  0  0  0  0  0  0
   -4.0396   -0.5172    2.8929 H   0  0  0  0  0  0  0  0  0  0  0  0
   -3.2050   -1.9474    3.3398 H   0  0  0  0  0  0  0  0  0  0  0  0
   -3.8562   -1.9327    1.0114 S   0  0  0  0  0  0  0  0  0  0  0  0
   -5.3289   -1.1958    0.3216 C   0  0  0  0  0  0  0  0  0  0  0  0
   -5.3873   -1.4065   -0.6565 H   0  0  0  0  0  0  0  0  0  0  0  0
   -6.1394   -1.5600    0.7859 H   0  0  0  0  0  0  0  0  0  0  0  0
   -5.2989   -0.2015    0.4423 H   0  0  0  0  0  0  0  0  0  0  0  0
  1  5  1  0
  5  8  1  0
  1  2  1  0
  1  3  1  0
  1  4  1  0
  5  6  1  0
  5  7  1  0
  8  9  1  0
  8 10  1  0
  8 11  1  0
 12 16  1  0
 16 17  1  0
 12 13  1  0
 12 14  1  0
 12 15  1  0
 17 18  1  0
 17 19  1  0
 17 20  1  0
M  CHG  1   8   1
M  END
>  <PDB_ID>  (1474) 
pdb5azw

>  <RESIDUE_NAME>  (1474) 
LYS   MET

>  <FRAG_NAME>  (1474) 
ETAM   MSM

>  <FRAG_ATOM_NUM>  (1474) 
fragi: 11  fragj: 9

>  <atom.prop.CHAIN_ID>  (1474) 
A A A A A A A A A A A Z Z Z Z Z Z Z Z Z

>  <atom.prop.IS_HEAVY_ATOM>  (1474) 
1 0 0 0 1 0 0 1 0 0 0 1 0 0 0 1 1 0 0 0

>  <DIFUSE_FUNC_ATOM>  (1474) 
n/a

>  <FINAL_SINGLE_POINT_ENERGY>  (1474) 
0

>  <NONCOV_INTER_ENERGY_QM>  (1474) 
0

>  <FF_Energy>  (1474) 
-3.84

>  <QM_Energy>  (1474) 
-11.19

>  <source>  (1474) 
ETAM_MSM

>  <Index>  (1474) 
9390

$$$$
ETAM-pdb5azw-A-LYS-67:MSM-pdb5azw-A-MET-86
     RDKit          3D

 20 18  0  0  0  0  0  0  0  0999 V2000
    1.1520    0.9489    0.0000 C   0  0  0  0  0  0  0  0  0  0  0  0
    1.0040    1.6329    0.6987 H   0  0  0  0  0  0  0  0  0  0  0  0
    1.2271    1.3612   -0.8964 H   0  0  0  0  0  0  0  0  0  0  0  0
    2.0588    0.3871    0.2239 H   0  0  0  0  0  0  0  0  0  0  0  0
    0.0000    0.0000    0.0000 C   0  0  0  0  0  0  0  0  0  0  0  0
    0.0191   -0.5372   -0.8163 H   0  0  0  0  0  0  0  0  0  0  0  0
    0.0189   -0.5375    0.8161 H   0  0  0  0  0  0  0  0  0  0  0  0
   -1.1520    0.8781   -0.0000 N   0  0  0  0  0  4  0  0  0  0  0  0
   -1.5906    0.8825   -0.9056 H   0  0  0  0  0  0  0  0  0  0  0  0
   -1.8269    0.5716    0.6803 H   0  0  0  0  0  0  0  0  0  0  0  0
   -0.8762    1.8190    0.2259 H   0  0  0  0  0  0  0  0  0  0  0  0
   -3.4831    2.4210    3.6080 C   0  0  0  0  0  0  0  0  0  0  0  0
   -3.1155    1.4641    3.6482 H   0  0  0  0  0  0  0  0  0  0  0  0
   -4.4442    2.3306    3.2620 H   0  0  0  0  0  0  0  0  0  0  0  0
   -3.5066    2.8325    4.6170 H   0  0  0  0  0  0  0  0  0  0  0  0
   -2.5053    3.4304    2.5044 S   0  0  0  0  0  0  0  0  0  0  0  0
   -3.5596    4.8612    2.2975 C   0  0  0  0  0  0  0  0  0  0  0  0
   -4.2249    4.9004    3.0452 H   0  0  0  0  0  0  0  0  0  0  0  0
   -3.0035    5.6939    2.3061 H   0  0  0  0  0  0  0  0  0  0  0  0
   -4.0460    4.7980    1.4239 H   0  0  0  0  0  0  0  0  0  0  0  0
  1  5  1  0
  5  8  1  0
  1  2  1  0
  1  3  1  0
  1  4  1  0
  5  6  1  0
  5  7  1  0
  8  9  1  0
  8 10  1  0
  8 11  1  0
 12 16  1  0
 16 17  1  0
 12 13  1  0
 12 14  1  0
 12 15  1  0
 17 18  1  0
 17 19  1  0
 17 20  1  0
M  CHG  1   8   1
M  END
>  <PDB_ID>  (1475) 
pdb5azw

>  <RESIDUE_NAME>  (1475) 
LYS   MET

>  <FRAG_NAME>  (1475) 
ETAM   MSM

>  <FRAG_ATOM_NUM>  (1475) 
fragi: 11  fragj: 9

>  <atom.prop.CHAIN_ID>  (1475) 
A A A A A A A A A A A Z Z Z Z Z Z Z Z Z

>  <atom.prop.IS_HEAVY_ATOM>  (1475) 
1 0 0 0 1 0 0 1 0 0 0 1 0 0 0 1 1 0 0 0

>  <DIFUSE_FUNC_ATOM>  (1475) 
n/a

>  <FINAL_SINGLE_POINT_ENERGY>  (1475) 
0

>  <NONCOV_INTER_ENERGY_QM>  (1475) 
0

>  <FF_Energy>  (1475) 
-4.4

>  <QM_Energy>  (1475) 
-10.66

>  <source>  (1475) 
ETAM_MSM

>  <Index>  (1475) 
9394

$$$$
ETAM-pdb6anv-B-LYS-27:MSM-pdb6anv-B-MET-1
     RDKit          3D

 20 18  0  0  0  0  0  0  0  0999 V2000
    1.2213    0.8598    0.0000 C   0  0  0  0  0  0  0  0  0  0  0  0
    1.8202    0.5680    0.7480 H   0  0  0  0  0  0  0  0  0  0  0  0
    0.9452    1.8106    0.1507 H   0  0  0  0  0  0  0  0  0  0  0  0
    1.7634    0.7874   -0.9429 H   0  0  0  0  0  0  0  0  0  0  0  0
    0.0000    0.0000    0.0000 C   0  0  0  0  0  0  0  0  0  0  0  0
   -0.0078   -0.5749   -0.8160 H   0  0  0  0  0  0  0  0  0  0  0  0
   -0.0086   -0.5749    0.8166 H   0  0  0  0  0  0  0  0  0  0  0  0
   -1.2213    0.8531   -0.0000 N   0  0  0  0  0  4  0  0  0  0  0  0
   -0.9644    1.7977    0.2021 H   0  0  0  0  0  0  0  0  0  0  0  0
   -1.6557    0.8085   -0.8990 H   0  0  0  0  0  0  0  0  0  0  0  0
   -1.8561    0.5214    0.6968 H   0  0  0  0  0  0  0  0  0  0  0  0
    2.8822   -2.7088    4.1895 C   0  0  0  0  0  0  0  0  0  0  0  0
    2.6866   -1.9839    4.9175 H   0  0  0  0  0  0  0  0  0  0  0  0
    3.9206   -2.6425    4.0754 H   0  0  0  0  0  0  0  0  0  0  0  0
    2.6284   -3.6914    4.5875 H   0  0  0  0  0  0  0  0  0  0  0  0
    2.0699   -2.2634    2.6508 S   0  0  0  0  0  0  0  0  0  0  0  0
    2.4755   -0.5202    2.7414 C   0  0  0  0  0  0  0  0  0  0  0  0
    2.4641   -0.2224    3.6970 H   0  0  0  0  0  0  0  0  0  0  0  0
    3.3874   -0.3673    2.3572 H   0  0  0  0  0  0  0  0  0  0  0  0
    1.8038    0.0081    2.2209 H   0  0  0  0  0  0  0  0  0  0  0  0
  1  5  1  0
  5  8  1  0
  1  2  1  0
  1  3  1  0
  1  4  1  0
  5  6  1  0
  5  7  1  0
  8  9  1  0
  8 10  1  0
  8 11  1  0
 12 16  1  0
 16 17  1  0
 12 13  1  0
 12 14  1  0
 12 15  1  0
 17 18  1  0
 17 19  1  0
 17 20  1  0
M  CHG  1   8   1
M  END
>  <PDB_ID>  (1476) 
pdb6anv

>  <RESIDUE_NAME>  (1476) 
LYS   MET

>  <FRAG_NAME>  (1476) 
ETAM   MSM

>  <FRAG_ATOM_NUM>  (1476) 
fragi: 11  fragj: 9

>  <atom.prop.CHAIN_ID>  (1476) 
A A A A A A A A A A A Z Z Z Z Z Z Z Z Z

>  <atom.prop.IS_HEAVY_ATOM>  (1476) 
1 0 0 0 1 0 0 1 0 0 0 1 0 0 0 1 1 0 0 0

>  <DIFUSE_FUNC_ATOM>  (1476) 
n/a

>  <FINAL_SINGLE_POINT_ENERGY>  (1476) 
0

>  <NONCOV_INTER_ENERGY_QM>  (1476) 
0

>  <FF_Energy>  (1476) 
15.07

>  <QM_Energy>  (1476) 
0.7

>  <source>  (1476) 
ETAM_MSM

>  <Index>  (1476) 
9395

$$$$
ETAM-pdb6arh-A-LYS-269:MSM-pdb6arh-A-MET-21
     RDKit          3D

 20 18  0  0  0  0  0  0  0  0999 V2000
    1.2583    0.8593   -0.0000 C   0  0  0  0  0  0  0  0  0  0  0  0
    1.1003    1.6549    0.5821 H   0  0  0  0  0  0  0  0  0  0  0  0
    1.4418    1.1548   -0.9356 H   0  0  0  0  0  0  0  0  0  0  0  0
    2.1314    0.3245    0.3736 H   0  0  0  0  0  0  0  0  0  0  0  0
    0.0000    0.0000    0.0000 C   0  0  0  0  0  0  0  0  0  0  0  0
    0.0177   -0.5974   -0.8157 H   0  0  0  0  0  0  0  0  0  0  0  0
    0.0175   -0.5977    0.8165 H   0  0  0  0  0  0  0  0  0  0  0  0
   -1.2583    0.7868    0.0000 N   0  0  0  0  0  4  0  0  0  0  0  0
   -1.2114    1.4912    0.7086 H   0  0  0  0  0  0  0  0  0  0  0  0
   -1.3805    1.2205   -0.8934 H   0  0  0  0  0  0  0  0  0  0  0  0
   -2.0323    0.1796    0.1847 H   0  0  0  0  0  0  0  0  0  0  0  0
   -4.9596    1.3589   -0.5566 C   0  0  0  0  0  0  0  0  0  0  0  0
   -5.9548    1.5677   -0.4213 H   0  0  0  0  0  0  0  0  0  0  0  0
   -4.7172    0.6928    0.1852 H   0  0  0  0  0  0  0  0  0  0  0  0
   -4.8396    0.8620   -1.5194 H   0  0  0  0  0  0  0  0  0  0  0  0
   -3.9682    2.8538   -0.4226 S   0  0  0  0  0  0  0  0  0  0  0  0
   -4.3471    3.2422    1.2887 C   0  0  0  0  0  0  0  0  0  0  0  0
   -3.5170    3.1638    1.8408 H   0  0  0  0  0  0  0  0  0  0  0  0
   -4.7001    4.1766    1.3485 H   0  0  0  0  0  0  0  0  0  0  0  0
   -5.0366    2.6034    1.6312 H   0  0  0  0  0  0  0  0  0  0  0  0
  1  5  1  0
  5  8  1  0
  1  2  1  0
  1  3  1  0
  1  4  1  0
  5  6  1  0
  5  7  1  0
  8  9  1  0
  8 10  1  0
  8 11  1  0
 12 16  1  0
 16 17  1  0
 12 13  1  0
 12 14  1  0
 12 15  1  0
 17 18  1  0
 17 19  1  0
 17 20  1  0
M  CHG  1   8   1
M  END
>  <PDB_ID>  (1477) 
pdb6arh

>  <RESIDUE_NAME>  (1477) 
LYS   MET

>  <FRAG_NAME>  (1477) 
ETAM   MSM

>  <FRAG_ATOM_NUM>  (1477) 
fragi: 11  fragj: 9

>  <atom.prop.CHAIN_ID>  (1477) 
A A A A A A A A A A A Z Z Z Z Z Z Z Z Z

>  <atom.prop.IS_HEAVY_ATOM>  (1477) 
1 0 0 0 1 0 0 1 0 0 0 1 0 0 0 1 1 0 0 0

>  <DIFUSE_FUNC_ATOM>  (1477) 
n/a

>  <FINAL_SINGLE_POINT_ENERGY>  (1477) 
0

>  <NONCOV_INTER_ENERGY_QM>  (1477) 
0

>  <FF_Energy>  (1477) 
-3.8

>  <QM_Energy>  (1477) 
-10.44

>  <source>  (1477) 
ETAM_MSM

>  <Index>  (1477) 
9399

$$$$
ETAM-pdb5b21-A-LYS-61:MSM-pdb5b21-B-MET-85
     RDKit          3D

 20 18  0  0  0  0  0  0  0  0999 V2000
    1.2515    0.8698   -0.0000 C   0  0  0  0  0  0  0  0  0  0  0  0
    1.2255    1.4625    0.7995 H   0  0  0  0  0  0  0  0  0  0  0  0
    1.2585    1.4148   -0.8331 H   0  0  0  0  0  0  0  0  0  0  0  0
    2.1620    0.2717    0.0364 H   0  0  0  0  0  0  0  0  0  0  0  0
    0.0000    0.0000    0.0000 C   0  0  0  0  0  0  0  0  0  0  0  0
    0.0143   -0.5870   -0.8162 H   0  0  0  0  0  0  0  0  0  0  0  0
    0.0141   -0.5872    0.8163 H   0  0  0  0  0  0  0  0  0  0  0  0
   -1.2515    0.8071    0.0000 N   0  0  0  0  0  4  0  0  0  0  0  0
   -2.0387    0.1966   -0.0768 H   0  0  0  0  0  0  0  0  0  0  0  0
   -1.3111    1.3257    0.8525 H   0  0  0  0  0  0  0  0  0  0  0  0
   -1.2395    1.4376   -0.7759 H   0  0  0  0  0  0  0  0  0  0  0  0
   -1.4917   -3.3344   -2.9029 C   0  0  0  0  0  0  0  0  0  0  0  0
   -2.4707   -3.4838   -2.6452 H   0  0  0  0  0  0  0  0  0  0  0  0
   -0.9385   -3.7870   -2.1701 H   0  0  0  0  0  0  0  0  0  0  0  0
   -1.3001   -3.8435   -3.8475 H   0  0  0  0  0  0  0  0  0  0  0  0
   -1.1165   -1.5744   -2.9903 S   0  0  0  0  0  0  0  0  0  0  0  0
    0.6591   -1.6203   -3.2265 C   0  0  0  0  0  0  0  0  0  0  0  0
    1.0650   -0.7719   -2.8851 H   0  0  0  0  0  0  0  0  0  0  0  0
    1.0445   -2.3972   -2.7266 H   0  0  0  0  0  0  0  0  0  0  0  0
    0.8650   -1.7179   -4.2013 H   0  0  0  0  0  0  0  0  0  0  0  0
  1  5  1  0
  5  8  1  0
  1  2  1  0
  1  3  1  0
  1  4  1  0
  5  6  1  0
  5  7  1  0
  8  9  1  0
  8 10  1  0
  8 11  1  0
 12 16  1  0
 16 17  1  0
 12 13  1  0
 12 14  1  0
 12 15  1  0
 17 18  1  0
 17 19  1  0
 17 20  1  0
M  CHG  1   8   1
M  END
>  <PDB_ID>  (1478) 
pdb5b21

>  <RESIDUE_NAME>  (1478) 
LYS   MET

>  <FRAG_NAME>  (1478) 
ETAM   MSM

>  <FRAG_ATOM_NUM>  (1478) 
fragi: 11  fragj: 9

>  <atom.prop.CHAIN_ID>  (1478) 
A A A A A A A A A A A Z Z Z Z Z Z Z Z Z

>  <atom.prop.IS_HEAVY_ATOM>  (1478) 
1 0 0 0 1 0 0 1 0 0 0 1 0 0 0 1 1 0 0 0

>  <DIFUSE_FUNC_ATOM>  (1478) 
n/a

>  <FINAL_SINGLE_POINT_ENERGY>  (1478) 
0

>  <NONCOV_INTER_ENERGY_QM>  (1478) 
0

>  <FF_Energy>  (1478) 
-3.14

>  <QM_Energy>  (1478) 
-9.6

>  <source>  (1478) 
ETAM_MSM

>  <Index>  (1478) 
9407

$$$$
ETAM-pdb6ay1-G-LYS-10:MSM-pdb6ay1-G-MET-66
     RDKit          3D

 20 18  0  0  0  0  0  0  0  0999 V2000
    1.2327    0.8727    0.0000 C   0  0  0  0  0  0  0  0  0  0  0  0
    1.5825    0.9322    0.9384 H   0  0  0  0  0  0  0  0  0  0  0  0
    0.9760    1.7887   -0.3127 H   0  0  0  0  0  0  0  0  0  0  0  0
    2.0235    0.4892   -0.6447 H   0  0  0  0  0  0  0  0  0  0  0  0
    0.0000    0.0000    0.0000 C   0  0  0  0  0  0  0  0  0  0  0  0
    0.0088   -0.5802   -0.8159 H   0  0  0  0  0  0  0  0  0  0  0  0
    0.0070   -0.5793    0.8168 H   0  0  0  0  0  0  0  0  0  0  0  0
   -1.2327    0.8259   -0.0000 N   0  0  0  0  0  4  0  0  0  0  0  0
   -2.0127    0.2610   -0.2705 H   0  0  0  0  0  0  0  0  0  0  0  0
   -1.3889    1.1924    0.9167 H   0  0  0  0  0  0  0  0  0  0  0  0
   -1.1280    1.5809   -0.6482 H   0  0  0  0  0  0  0  0  0  0  0  0
   -0.9025   -2.6041   -3.4192 C   0  0  0  0  0  0  0  0  0  0  0  0
   -1.8144   -2.1274   -3.3106 H   0  0  0  0  0  0  0  0  0  0  0  0
   -1.0191   -3.4929   -2.9008 H   0  0  0  0  0  0  0  0  0  0  0  0
   -0.7707   -2.8435   -4.4745 H   0  0  0  0  0  0  0  0  0  0  0  0
    0.4252   -1.6107   -2.6871 S   0  0  0  0  0  0  0  0  0  0  0  0
    1.8243   -2.7308   -2.7815 C   0  0  0  0  0  0  0  0  0  0  0  0
    1.9438   -3.0382   -3.7262 H   0  0  0  0  0  0  0  0  0  0  0  0
    2.6524   -2.2574   -2.4785 H   0  0  0  0  0  0  0  0  0  0  0  0
    1.6593   -3.5226   -2.1919 H   0  0  0  0  0  0  0  0  0  0  0  0
  1  5  1  0
  5  8  1  0
  1  2  1  0
  1  3  1  0
  1  4  1  0
  5  6  1  0
  5  7  1  0
  8  9  1  0
  8 10  1  0
  8 11  1  0
 12 16  1  0
 16 17  1  0
 12 13  1  0
 12 14  1  0
 12 15  1  0
 17 18  1  0
 17 19  1  0
 17 20  1  0
M  CHG  1   8   1
M  END
>  <PDB_ID>  (1479) 
pdb6ay1

>  <RESIDUE_NAME>  (1479) 
LYS   MET

>  <FRAG_NAME>  (1479) 
ETAM   MSM

>  <FRAG_ATOM_NUM>  (1479) 
fragi: 11  fragj: 9

>  <atom.prop.CHAIN_ID>  (1479) 
A A A A A A A A A A A Z Z Z Z Z Z Z Z Z

>  <atom.prop.IS_HEAVY_ATOM>  (1479) 
1 0 0 0 1 0 0 1 0 0 0 1 0 0 0 1 1 0 0 0

>  <DIFUSE_FUNC_ATOM>  (1479) 
n/a

>  <FINAL_SINGLE_POINT_ENERGY>  (1479) 
0

>  <NONCOV_INTER_ENERGY_QM>  (1479) 
0

>  <FF_Energy>  (1479) 
14.19

>  <QM_Energy>  (1479) 
-5.04

>  <source>  (1479) 
ETAM_MSM

>  <Index>  (1479) 
9417

$$$$
ETAM-pdb6arh-B-LYS-269:MSM-pdb6arh-B-MET-21
     RDKit          3D

 20 18  0  0  0  0  0  0  0  0999 V2000
    1.2492    0.8572   -0.0000 C   0  0  0  0  0  0  0  0  0  0  0  0
    1.0733    1.6801    0.5441 H   0  0  0  0  0  0  0  0  0  0  0  0
    1.4540    1.1251   -0.9442 H   0  0  0  0  0  0  0  0  0  0  0  0
    2.1194    0.3473    0.4134 H   0  0  0  0  0  0  0  0  0  0  0  0
    0.0000    0.0000    0.0000 C   0  0  0  0  0  0  0  0  0  0  0  0
    0.0122   -0.5943   -0.8164 H   0  0  0  0  0  0  0  0  0  0  0  0
    0.0122   -0.5944    0.8162 H   0  0  0  0  0  0  0  0  0  0  0  0
   -1.2492    0.7984   -0.0000 N   0  0  0  0  0  4  0  0  0  0  0  0
   -1.9902    0.2603    0.4026 H   0  0  0  0  0  0  0  0  0  0  0  0
   -1.1135    1.6311    0.5378 H   0  0  0  0  0  0  0  0  0  0  0  0
   -1.4890    1.0442   -0.9399 H   0  0  0  0  0  0  0  0  0  0  0  0
   -5.0426    1.3912   -0.4832 C   0  0  0  0  0  0  0  0  0  0  0  0
   -6.0333    1.6327   -0.3569 H   0  0  0  0  0  0  0  0  0  0  0  0
   -4.8124    0.7786    0.3100 H   0  0  0  0  0  0  0  0  0  0  0  0
   -4.9547    0.8046   -1.3977 H   0  0  0  0  0  0  0  0  0  0  0  0
   -4.0181    2.8411   -0.5019 S   0  0  0  0  0  0  0  0  0  0  0  0
   -4.2741    3.4491    1.1749 C   0  0  0  0  0  0  0  0  0  0  0  0
   -4.7787    4.3111    1.1404 H   0  0  0  0  0  0  0  0  0  0  0  0
   -4.7974    2.7751    1.6949 H   0  0  0  0  0  0  0  0  0  0  0  0
   -3.3880    3.5957    1.6120 H   0  0  0  0  0  0  0  0  0  0  0  0
  1  5  1  0
  5  8  1  0
  1  2  1  0
  1  3  1  0
  1  4  1  0
  5  6  1  0
  5  7  1  0
  8  9  1  0
  8 10  1  0
  8 11  1  0
 12 16  1  0
 16 17  1  0
 12 13  1  0
 12 14  1  0
 12 15  1  0
 17 18  1  0
 17 19  1  0
 17 20  1  0
M  CHG  1   8   1
M  END
>  <PDB_ID>  (1480) 
pdb6arh

>  <RESIDUE_NAME>  (1480) 
LYS   MET

>  <FRAG_NAME>  (1480) 
ETAM   MSM

>  <FRAG_ATOM_NUM>  (1480) 
fragi: 11  fragj: 9

>  <atom.prop.CHAIN_ID>  (1480) 
A A A A A A A A A A A Z Z Z Z Z Z Z Z Z

>  <atom.prop.IS_HEAVY_ATOM>  (1480) 
1 0 0 0 1 0 0 1 0 0 0 1 0 0 0 1 1 0 0 0

>  <DIFUSE_FUNC_ATOM>  (1480) 
n/a

>  <FINAL_SINGLE_POINT_ENERGY>  (1480) 
0

>  <NONCOV_INTER_ENERGY_QM>  (1480) 
0

>  <FF_Energy>  (1480) 
-3.87

>  <QM_Energy>  (1480) 
-10.53

>  <source>  (1480) 
ETAM_MSM

>  <Index>  (1480) 
9421

$$$$
ETAM-pdb5b46-A-LYS-564:MSM-pdb5b46-A-MET-542
     RDKit          3D

 20 18  0  0  0  0  0  0  0  0999 V2000
    1.1788    0.9247    0.0000 C   0  0  0  0  0  0  0  0  0  0  0  0
    1.3373    1.2378    0.9183 H   0  0  0  0  0  0  0  0  0  0  0  0
    1.0035    1.6638   -0.6235 H   0  0  0  0  0  0  0  0  0  0  0  0
    2.0354    0.3455   -0.3448 H   0  0  0  0  0  0  0  0  0  0  0  0
    0.0000    0.0000    0.0000 C   0  0  0  0  0  0  0  0  0  0  0  0
    0.0195   -0.5535   -0.8166 H   0  0  0  0  0  0  0  0  0  0  0  0
    0.0198   -0.5539    0.8163 H   0  0  0  0  0  0  0  0  0  0  0  0
   -1.1788    0.8517   -0.0000 N   0  0  0  0  0  4  0  0  0  0  0  0
   -1.7141    0.7058    0.8380 H   0  0  0  0  0  0  0  0  0  0  0  0
   -0.9102    1.8191   -0.0454 H   0  0  0  0  0  0  0  0  0  0  0  0
   -1.7600    0.6417   -0.7933 H   0  0  0  0  0  0  0  0  0  0  0  0
   -1.3265   -2.5615   -4.1867 C   0  0  0  0  0  0  0  0  0  0  0  0
   -0.7906   -3.1610   -3.5577 H   0  0  0  0  0  0  0  0  0  0  0  0
   -0.6719   -2.2429   -4.9028 H   0  0  0  0  0  0  0  0  0  0  0  0
   -2.1166   -3.1479   -4.6555 H   0  0  0  0  0  0  0  0  0  0  0  0
   -2.0016   -1.1459   -3.2798 S   0  0  0  0  0  0  0  0  0  0  0  0
   -3.0571   -0.2921   -4.3810 C   0  0  0  0  0  0  0  0  0  0  0  0
   -3.1986   -0.8248   -5.2260 H   0  0  0  0  0  0  0  0  0  0  0  0
   -3.9579   -0.1290   -3.9577 H   0  0  0  0  0  0  0  0  0  0  0  0
   -2.6623    0.6003   -4.6345 H   0  0  0  0  0  0  0  0  0  0  0  0
  1  5  1  0
  5  8  1  0
  1  2  1  0
  1  3  1  0
  1  4  1  0
  5  6  1  0
  5  7  1  0
  8  9  1  0
  8 10  1  0
  8 11  1  0
 12 16  1  0
 16 17  1  0
 12 13  1  0
 12 14  1  0
 12 15  1  0
 17 18  1  0
 17 19  1  0
 17 20  1  0
M  CHG  1   8   1
M  END
>  <PDB_ID>  (1481) 
pdb5b46

>  <RESIDUE_NAME>  (1481) 
LYS   MET

>  <FRAG_NAME>  (1481) 
ETAM   MSM

>  <FRAG_ATOM_NUM>  (1481) 
fragi: 11  fragj: 9

>  <atom.prop.CHAIN_ID>  (1481) 
A A A A A A A A A A A Z Z Z Z Z Z Z Z Z

>  <atom.prop.IS_HEAVY_ATOM>  (1481) 
1 0 0 0 1 0 0 1 0 0 0 1 0 0 0 1 1 0 0 0

>  <DIFUSE_FUNC_ATOM>  (1481) 
n/a

>  <FINAL_SINGLE_POINT_ENERGY>  (1481) 
0

>  <NONCOV_INTER_ENERGY_QM>  (1481) 
0

>  <FF_Energy>  (1481) 
-4.93

>  <QM_Energy>  (1481) 
-11.53

>  <source>  (1481) 
ETAM_MSM

>  <Index>  (1481) 
9422

$$$$
ETAM-pdb6arh-C-LYS-269:MSM-pdb6arh-C-MET-21
     RDKit          3D

 20 18  0  0  0  0  0  0  0  0999 V2000
    1.2458    0.8569   -0.0000 C   0  0  0  0  0  0  0  0  0  0  0  0
    1.0475    1.7210    0.4912 H   0  0  0  0  0  0  0  0  0  0  0  0
    1.4752    1.0971   -0.9567 H   0  0  0  0  0  0  0  0  0  0  0  0
    2.1321    0.4134    0.4540 H   0  0  0  0  0  0  0  0  0  0  0  0
    0.0000    0.0000    0.0000 C   0  0  0  0  0  0  0  0  0  0  0  0
   -0.0030   -0.5810   -0.8163 H   0  0  0  0  0  0  0  0  0  0  0  0
   -0.0034   -0.5812    0.8163 H   0  0  0  0  0  0  0  0  0  0  0  0
   -1.2458    0.8365   -0.0000 N   0  0  0  0  0  4  0  0  0  0  0  0
   -1.1066    1.6265   -0.5928 H   0  0  0  0  0  0  0  0  0  0  0  0
   -2.0067    0.2879   -0.3393 H   0  0  0  0  0  0  0  0  0  0  0  0
   -1.4345    1.1395    0.9310 H   0  0  0  0  0  0  0  0  0  0  0  0
   -5.0189    1.3228   -0.4597 C   0  0  0  0  0  0  0  0  0  0  0  0
   -6.0204    1.5066   -0.2887 H   0  0  0  0  0  0  0  0  0  0  0  0
   -4.7286    0.7190    0.3263 H   0  0  0  0  0  0  0  0  0  0  0  0
   -4.9370    0.7417   -1.3782 H   0  0  0  0  0  0  0  0  0  0  0  0
   -4.0798    2.8464   -0.4797 S   0  0  0  0  0  0  0  0  0  0  0  0
   -4.3720    3.4015    1.2014 C   0  0  0  0  0  0  0  0  0  0  0  0
   -5.2670    3.8454    1.2565 H   0  0  0  0  0  0  0  0  0  0  0  0
   -4.3517    2.6163    1.8206 H   0  0  0  0  0  0  0  0  0  0  0  0
   -3.6605    4.0530    1.4671 H   0  0  0  0  0  0  0  0  0  0  0  0
  1  5  1  0
  5  8  1  0
  1  2  1  0
  1  3  1  0
  1  4  1  0
  5  6  1  0
  5  7  1  0
  8  9  1  0
  8 10  1  0
  8 11  1  0
 12 16  1  0
 16 17  1  0
 12 13  1  0
 12 14  1  0
 12 15  1  0
 17 18  1  0
 17 19  1  0
 17 20  1  0
M  CHG  1   8   1
M  END
>  <PDB_ID>  (1482) 
pdb6arh

>  <RESIDUE_NAME>  (1482) 
LYS   MET

>  <FRAG_NAME>  (1482) 
ETAM   MSM

>  <FRAG_ATOM_NUM>  (1482) 
fragi: 11  fragj: 9

>  <atom.prop.CHAIN_ID>  (1482) 
A A A A A A A A A A A Z Z Z Z Z Z Z Z Z

>  <atom.prop.IS_HEAVY_ATOM>  (1482) 
1 0 0 0 1 0 0 1 0 0 0 1 0 0 0 1 1 0 0 0

>  <DIFUSE_FUNC_ATOM>  (1482) 
n/a

>  <FINAL_SINGLE_POINT_ENERGY>  (1482) 
0

>  <NONCOV_INTER_ENERGY_QM>  (1482) 
0

>  <FF_Energy>  (1482) 
-3.79

>  <QM_Energy>  (1482) 
-10.29

>  <source>  (1482) 
ETAM_MSM

>  <Index>  (1482) 
9436

$$$$
ETAM-pdb6b4e-E-LYS-355:MSM-pdb6b4e-E-MET-536
     RDKit          3D

 20 18  0  0  0  0  0  0  0  0999 V2000
    1.2341    0.8718    0.0000 C   0  0  0  0  0  0  0  0  0  0  0  0
    1.2608    1.3594    0.8376 H   0  0  0  0  0  0  0  0  0  0  0  0
    1.1646    1.4909   -0.7432 H   0  0  0  0  0  0  0  0  0  0  0  0
    2.1512    0.2920   -0.1046 H   0  0  0  0  0  0  0  0  0  0  0  0
    0.0000    0.0000    0.0000 C   0  0  0  0  0  0  0  0  0  0  0  0
   -0.0039   -0.5535   -0.7969 H   0  0  0  0  0  0  0  0  0  0  0  0
   -0.0037   -0.5535    0.7960 H   0  0  0  0  0  0  0  0  0  0  0  0
   -1.2341    0.8304    0.0000 N   0  0  0  0  0  4  0  0  0  0  0  0
   -1.2532    1.3476   -0.7242 H   0  0  0  0  0  0  0  0  0  0  0  0
   -1.9530    0.3062    0.0000 H   0  0  0  0  0  0  0  0  0  0  0  0
   -1.2525    1.3475    0.7244 H   0  0  0  0  0  0  0  0  0  0  0  0
   -1.5768    0.4385    3.9560 C   0  0  0  0  0  0  0  0  0  0  0  0
   -1.4963    0.3785    4.9205 H   0  0  0  0  0  0  0  0  0  0  0  0
   -1.6508   -0.4524    3.5787 H   0  0  0  0  0  0  0  0  0  0  0  0
   -2.4831    0.9946    3.7162 H   0  0  0  0  0  0  0  0  0  0  0  0
   -0.0688    1.1673    3.3316 S   0  0  0  0  0  0  0  0  0  0  0  0
   -0.0287    2.7448    4.1554 C   0  0  0  0  0  0  0  0  0  0  0  0
    0.7963    3.1996    3.9257 H   0  0  0  0  0  0  0  0  0  0  0  0
   -0.7888    3.2726    3.8653 H   0  0  0  0  0  0  0  0  0  0  0  0
   -0.0716    2.6008    5.1140 H   0  0  0  0  0  0  0  0  0  0  0  0
  1  5  1  0
  5  8  1  0
  1  2  1  0
  1  3  1  0
  1  4  1  0
  5  6  1  0
  5  7  1  0
  8  9  1  0
  8 10  1  0
  8 11  1  0
 12 16  1  0
 16 17  1  0
 12 13  1  0
 12 14  1  0
 12 15  1  0
 17 18  1  0
 17 19  1  0
 17 20  1  0
M  CHG  1   8   1
M  END
>  <PDB_ID>  (1483) 
pdb6b4e

>  <RESIDUE_NAME>  (1483) 
LYS   MET

>  <FRAG_NAME>  (1483) 
ETAM   MSM

>  <FRAG_ATOM_NUM>  (1483) 
fragi: 11  fragj: 9

>  <atom.prop.CHAIN_ID>  (1483) 
A A A A A A A A A A A Z Z Z Z Z Z Z Z Z

>  <atom.prop.IS_HEAVY_ATOM>  (1483) 
1 0 0 0 1 0 0 1 0 0 0 1 0 0 0 1 1 0 0 0

>  <DIFUSE_FUNC_ATOM>  (1483) 
n/a

>  <FINAL_SINGLE_POINT_ENERGY>  (1483) 
0

>  <NONCOV_INTER_ENERGY_QM>  (1483) 
0

>  <FF_Energy>  (1483) 
-4.58

>  <QM_Energy>  (1483) 
-13.33

>  <source>  (1483) 
ETAM_MSM

>  <Index>  (1483) 
9439

$$$$
ETAM-pdb6b5f-A-LYS-31:MSM-pdb6b5f-A-MET-337
     RDKit          3D

 20 18  0  0  0  0  0  0  0  0999 V2000
    1.2433    0.8815   -0.0000 C   0  0  0  0  0  0  0  0  0  0  0  0
    1.2696    1.3889   -0.8522 H   0  0  0  0  0  0  0  0  0  0  0  0
    2.0419    0.2992    0.0875 H   0  0  0  0  0  0  0  0  0  0  0  0
    1.2205    1.5847    0.8325 H   0  0  0  0  0  0  0  0  0  0  0  0
    0.0000    0.0000    0.0000 C   0  0  0  0  0  0  0  0  0  0  0  0
    0.0114   -0.5767   -0.8159 H   0  0  0  0  0  0  0  0  0  0  0  0
    0.0112   -0.5772    0.8159 H   0  0  0  0  0  0  0  0  0  0  0  0
   -1.2433    0.8258   -0.0000 N   0  0  0  0  0  4  0  0  0  0  0  0
   -1.4653    1.0874    0.9384 H   0  0  0  0  0  0  0  0  0  0  0  0
   -1.0948    1.6456   -0.5510 H   0  0  0  0  0  0  0  0  0  0  0  0
   -1.9932    0.2920   -0.3871 H   0  0  0  0  0  0  0  0  0  0  0  0
    4.6389   -3.1022    2.7635 C   0  0  0  0  0  0  0  0  0  0  0  0
    4.1876   -2.5416    3.4738 H   0  0  0  0  0  0  0  0  0  0  0  0
    5.6383   -2.9916    2.8727 H   0  0  0  0  0  0  0  0  0  0  0  0
    4.3711   -4.1496    2.9024 H   0  0  0  0  0  0  0  0  0  0  0  0
    4.1214   -2.5736    1.1182 S   0  0  0  0  0  0  0  0  0  0  0  0
    4.0326   -0.8149    1.3916 C   0  0  0  0  0  0  0  0  0  0  0  0
    4.8797   -0.3788    1.0789 H   0  0  0  0  0  0  0  0  0  0  0  0
    3.2589   -0.4298    0.8837 H   0  0  0  0  0  0  0  0  0  0  0  0
    3.9086   -0.6283    2.3687 H   0  0  0  0  0  0  0  0  0  0  0  0
  1  5  1  0
  5  8  1  0
  1  2  1  0
  1  3  1  0
  1  4  1  0
  5  6  1  0
  5  7  1  0
  8  9  1  0
  8 10  1  0
  8 11  1  0
 12 16  1  0
 16 17  1  0
 12 13  1  0
 12 14  1  0
 12 15  1  0
 17 18  1  0
 17 19  1  0
 17 20  1  0
M  CHG  1   8   1
M  END
>  <PDB_ID>  (1484) 
pdb6b5f

>  <RESIDUE_NAME>  (1484) 
LYS   MET

>  <FRAG_NAME>  (1484) 
ETAM   MSM

>  <FRAG_ATOM_NUM>  (1484) 
fragi: 11  fragj: 9

>  <atom.prop.CHAIN_ID>  (1484) 
A A A A A A A A A A A Z Z Z Z Z Z Z Z Z

>  <atom.prop.IS_HEAVY_ATOM>  (1484) 
1 0 0 0 1 0 0 1 0 0 0 1 0 0 0 1 1 0 0 0

>  <DIFUSE_FUNC_ATOM>  (1484) 
n/a

>  <FINAL_SINGLE_POINT_ENERGY>  (1484) 
0

>  <NONCOV_INTER_ENERGY_QM>  (1484) 
0

>  <FF_Energy>  (1484) 
9.01

>  <QM_Energy>  (1484) 
1.23

>  <source>  (1484) 
ETAM_MSM

>  <Index>  (1484) 
9442

$$$$
ETAM-pdb5b8i-A-LYS-65:MSM-pdb5b8i-A-MET-117
     RDKit          3D

 20 18  0  0  0  0  0  0  0  0999 V2000
    1.2270    0.8468    0.0000 C   0  0  0  0  0  0  0  0  0  0  0  0
    2.0166    0.2881    0.2572 H   0  0  0  0  0  0  0  0  0  0  0  0
    1.1176    1.5899    0.6619 H   0  0  0  0  0  0  0  0  0  0  0  0
    1.4281    1.2881   -0.9762 H   0  0  0  0  0  0  0  0  0  0  0  0
    0.0000    0.0000    0.0000 C   0  0  0  0  0  0  0  0  0  0  0  0
    0.0121   -0.6008   -0.8161 H   0  0  0  0  0  0  0  0  0  0  0  0
    0.0123   -0.6004    0.8163 H   0  0  0  0  0  0  0  0  0  0  0  0
   -1.2270    0.7898    0.0000 N   0  0  0  0  0  4  0  0  0  0  0  0
   -1.0575    1.6922   -0.4078 H   0  0  0  0  0  0  0  0  0  0  0  0
   -1.9397    0.3226   -0.5326 H   0  0  0  0  0  0  0  0  0  0  0  0
   -1.5566    0.9164    0.9397 H   0  0  0  0  0  0  0  0  0  0  0  0
   -2.7125   -0.2348   -4.1479 C   0  0  0  0  0  0  0  0  0  0  0  0
   -2.6821   -0.5653   -5.0973 H   0  0  0  0  0  0  0  0  0  0  0  0
   -3.0935    0.6966   -4.1468 H   0  0  0  0  0  0  0  0  0  0  0  0
   -3.3874   -0.8798   -3.5852 H   0  0  0  0  0  0  0  0  0  0  0  0
   -1.0291   -0.2503   -3.4005 S   0  0  0  0  0  0  0  0  0  0  0  0
   -0.1656   -1.6228   -4.1796 C   0  0  0  0  0  0  0  0  0  0  0  0
   -0.5160   -2.4853   -3.8147 H   0  0  0  0  0  0  0  0  0  0  0  0
   -0.3160   -1.5917   -5.1679 H   0  0  0  0  0  0  0  0  0  0  0  0
    0.8134   -1.5511   -3.9873 H   0  0  0  0  0  0  0  0  0  0  0  0
  1  5  1  0
  5  8  1  0
  1  2  1  0
  1  3  1  0
  1  4  1  0
  5  6  1  0
  5  7  1  0
  8  9  1  0
  8 10  1  0
  8 11  1  0
 12 16  1  0
 16 17  1  0
 12 13  1  0
 12 14  1  0
 12 15  1  0
 17 18  1  0
 17 19  1  0
 17 20  1  0
M  CHG  1   8   1
M  END
>  <PDB_ID>  (1485) 
pdb5b8i

>  <RESIDUE_NAME>  (1485) 
LYS   MET

>  <FRAG_NAME>  (1485) 
ETAM   MSM

>  <FRAG_ATOM_NUM>  (1485) 
fragi: 11  fragj: 9

>  <atom.prop.CHAIN_ID>  (1485) 
A A A A A A A A A A A Z Z Z Z Z Z Z Z Z

>  <atom.prop.IS_HEAVY_ATOM>  (1485) 
1 0 0 0 1 0 0 1 0 0 0 1 0 0 0 1 1 0 0 0

>  <DIFUSE_FUNC_ATOM>  (1485) 
n/a

>  <FINAL_SINGLE_POINT_ENERGY>  (1485) 
0

>  <NONCOV_INTER_ENERGY_QM>  (1485) 
0

>  <FF_Energy>  (1485) 
-4.98

>  <QM_Energy>  (1485) 
-12.97

>  <source>  (1485) 
ETAM_MSM

>  <Index>  (1485) 
9447

$$$$
ETAM-pdb6arh-D-LYS-269:MSM-pdb6arh-D-MET-21
     RDKit          3D

 20 18  0  0  0  0  0  0  0  0999 V2000
    1.2410    0.8589    0.0000 C   0  0  0  0  0  0  0  0  0  0  0  0
    1.0638    1.6816    0.5463 H   0  0  0  0  0  0  0  0  0  0  0  0
    1.4432    1.1322   -0.9443 H   0  0  0  0  0  0  0  0  0  0  0  0
    2.1145    0.3522    0.4102 H   0  0  0  0  0  0  0  0  0  0  0  0
    0.0000    0.0000    0.0000 C   0  0  0  0  0  0  0  0  0  0  0  0
    0.0075   -0.5885   -0.8166 H   0  0  0  0  0  0  0  0  0  0  0  0
    0.0071   -0.5892    0.8161 H   0  0  0  0  0  0  0  0  0  0  0  0
   -1.2410    0.8127    0.0000 N   0  0  0  0  0  4  0  0  0  0  0  0
   -1.4390    1.1198    0.9318 H   0  0  0  0  0  0  0  0  0  0  0  0
   -1.1192    1.6083   -0.5940 H   0  0  0  0  0  0  0  0  0  0  0  0
   -2.0030    0.2586   -0.3364 H   0  0  0  0  0  0  0  0  0  0  0  0
   -5.0925    1.0616   -0.7656 C   0  0  0  0  0  0  0  0  0  0  0  0
   -6.0988    1.2666   -0.7600 H   0  0  0  0  0  0  0  0  0  0  0  0
   -4.9427    0.4200    0.0216 H   0  0  0  0  0  0  0  0  0  0  0  0
   -4.8595    0.5294   -1.6877 H   0  0  0  0  0  0  0  0  0  0  0  0
   -4.1298    2.5553   -0.5714 S   0  0  0  0  0  0  0  0  0  0  0  0
   -4.5754    3.0596    1.1090 C   0  0  0  0  0  0  0  0  0  0  0  0
   -5.1332    3.8861    1.0644 H   0  0  0  0  0  0  0  0  0  0  0  0
   -5.0918    2.3251    1.5440 H   0  0  0  0  0  0  0  0  0  0  0  0
   -3.7418    3.2406    1.6275 H   0  0  0  0  0  0  0  0  0  0  0  0
  1  5  1  0
  5  8  1  0
  1  2  1  0
  1  3  1  0
  1  4  1  0
  5  6  1  0
  5  7  1  0
  8  9  1  0
  8 10  1  0
  8 11  1  0
 12 16  1  0
 16 17  1  0
 12 13  1  0
 12 14  1  0
 12 15  1  0
 17 18  1  0
 17 19  1  0
 17 20  1  0
M  CHG  1   8   1
M  END
>  <PDB_ID>  (1486) 
pdb6arh

>  <RESIDUE_NAME>  (1486) 
LYS   MET

>  <FRAG_NAME>  (1486) 
ETAM   MSM

>  <FRAG_ATOM_NUM>  (1486) 
fragi: 11  fragj: 9

>  <atom.prop.CHAIN_ID>  (1486) 
A A A A A A A A A A A Z Z Z Z Z Z Z Z Z

>  <atom.prop.IS_HEAVY_ATOM>  (1486) 
1 0 0 0 1 0 0 1 0 0 0 1 0 0 0 1 1 0 0 0

>  <DIFUSE_FUNC_ATOM>  (1486) 
n/a

>  <FINAL_SINGLE_POINT_ENERGY>  (1486) 
0

>  <NONCOV_INTER_ENERGY_QM>  (1486) 
0

>  <FF_Energy>  (1486) 
-4.08

>  <QM_Energy>  (1486) 
-11.2

>  <source>  (1486) 
ETAM_MSM

>  <Index>  (1486) 
9461

$$$$
ETAM-pdb5bnz-A-ALA-8:MSM-pdb5bnz-A-MET-314
     RDKit          3D

 20 18  0  0  0  0  0  0  0  0999 V2000
    1.2277    0.9124    0.0000 C   0  0  0  0  0  0  0  0  0  0  0  0
    0.9909    1.7852   -0.4222 H   0  0  0  0  0  0  0  0  0  0  0  0
    1.5259    1.0655    0.9406 H   0  0  0  0  0  0  0  0  0  0  0  0
    1.9625    0.4777   -0.5181 H   0  0  0  0  0  0  0  0  0  0  0  0
    0.0000    0.0000    0.0000 C   0  0  0  0  0  0  0  0  0  0  0  0
    0.0336   -0.5507   -0.8411 H   0  0  0  0  0  0  0  0  0  0  0  0
    0.0252   -0.6735    0.8566 H   0  0  0  0  0  0  0  0  0  0  0  0
   -1.2277    0.7857   -0.0000 N   0  0  0  0  0  4  0  0  0  0  0  0
   -1.0493    1.7006    0.3682 H   0  0  0  0  0  0  0  0  0  0  0  0
   -1.5786    0.8745   -0.9345 H   0  0  0  0  0  0  0  0  0  0  0  0
   -1.9225    0.3375    0.5667 H   0  0  0  0  0  0  0  0  0  0  0  0
   -1.1890    5.5073    0.4195 C   0  0  0  0  0  0  0  0  0  0  0  0
   -2.0714    5.5830   -0.1004 H   0  0  0  0  0  0  0  0  0  0  0  0
   -0.7674    6.4421    0.3762 H   0  0  0  0  0  0  0  0  0  0  0  0
   -1.4173    5.2758    1.4599 H   0  0  0  0  0  0  0  0  0  0  0  0
   -0.1008    4.2854   -0.3527 S   0  0  0  0  0  0  0  0  0  0  0  0
    1.4243    4.5537    0.5563 C   0  0  0  0  0  0  0  0  0  0  0  0
    2.0367    5.1325    0.0178 H   0  0  0  0  0  0  0  0  0  0  0  0
    1.2198    5.0042    1.4263 H   0  0  0  0  0  0  0  0  0  0  0  0
    1.8674    3.6743    0.7321 H   0  0  0  0  0  0  0  0  0  0  0  0
  1  5  1  0
  5  8  1  0
  1  2  1  0
  1  3  1  0
  1  4  1  0
  5  6  1  0
  5  7  1  0
  8  9  1  0
  8 10  1  0
  8 11  1  0
 12 16  1  0
 16 17  1  0
 12 13  1  0
 12 14  1  0
 12 15  1  0
 17 18  1  0
 17 19  1  0
 17 20  1  0
M  CHG  1   8   1
M  END
>  <PDB_ID>  (1487) 
pdb5bnz

>  <RESIDUE_NAME>  (1487) 
ALA   MET

>  <FRAG_NAME>  (1487) 
ETAM   MSM

>  <FRAG_ATOM_NUM>  (1487) 
fragi: 11  fragj: 9

>  <atom.prop.CHAIN_ID>  (1487) 
A A A A A A A A A A A Z Z Z Z Z Z Z Z Z

>  <atom.prop.IS_HEAVY_ATOM>  (1487) 
1 0 0 0 1 0 0 1 0 0 0 1 0 0 0 1 1 0 0 0

>  <DIFUSE_FUNC_ATOM>  (1487) 
n/a

>  <FINAL_SINGLE_POINT_ENERGY>  (1487) 
0

>  <NONCOV_INTER_ENERGY_QM>  (1487) 
0

>  <FF_Energy>  (1487) 
-4.58

>  <QM_Energy>  (1487) 
-13.43

>  <source>  (1487) 
ETAM_MSM

>  <Index>  (1487) 
9467

$$$$
ETAM-pdb5bnz-B-ALA-8:MSM-pdb5bnz-B-MET-314
     RDKit          3D

 20 18  0  0  0  0  0  0  0  0999 V2000
    1.2308    0.9138    0.0000 C   0  0  0  0  0  0  0  0  0  0  0  0
    1.1134    1.6234   -0.6914 H   0  0  0  0  0  0  0  0  0  0  0  0
    1.3284    1.3338    0.9001 H   0  0  0  0  0  0  0  0  0  0  0  0
    2.0428    0.3720   -0.2083 H   0  0  0  0  0  0  0  0  0  0  0  0
    0.0000    0.0000    0.0000 C   0  0  0  0  0  0  0  0  0  0  0  0
    0.0325   -0.5550   -0.8364 H   0  0  0  0  0  0  0  0  0  0  0  0
    0.0205   -0.6671    0.8618 H   0  0  0  0  0  0  0  0  0  0  0  0
   -1.2308    0.7822    0.0000 N   0  0  0  0  0  4  0  0  0  0  0  0
   -1.3468    1.2390   -0.8845 H   0  0  0  0  0  0  0  0  0  0  0  0
   -2.0178    0.1835    0.1620 H   0  0  0  0  0  0  0  0  0  0  0  0
   -1.1960    1.4765    0.7228 H   0  0  0  0  0  0  0  0  0  0  0  0
   -1.6036    5.4205    0.4406 C   0  0  0  0  0  0  0  0  0  0  0  0
   -2.5705    5.5284    0.0999 H   0  0  0  0  0  0  0  0  0  0  0  0
   -1.1747    6.3483    0.3064 H   0  0  0  0  0  0  0  0  0  0  0  0
   -1.6368    5.2069    1.5089 H   0  0  0  0  0  0  0  0  0  0  0  0
   -0.7229    4.1694   -0.5453 S   0  0  0  0  0  0  0  0  0  0  0  0
    0.9803    4.4858   -0.0756 C   0  0  0  0  0  0  0  0  0  0  0  0
    1.0449    5.3831    0.3618 H   0  0  0  0  0  0  0  0  0  0  0  0
    1.2870    3.7808    0.5647 H   0  0  0  0  0  0  0  0  0  0  0  0
    1.5595    4.4703   -0.8909 H   0  0  0  0  0  0  0  0  0  0  0  0
  1  5  1  0
  5  8  1  0
  1  2  1  0
  1  3  1  0
  1  4  1  0
  5  6  1  0
  5  7  1  0
  8  9  1  0
  8 10  1  0
  8 11  1  0
 12 16  1  0
 16 17  1  0
 12 13  1  0
 12 14  1  0
 12 15  1  0
 17 18  1  0
 17 19  1  0
 17 20  1  0
M  CHG  1   8   1
M  END
>  <PDB_ID>  (1488) 
pdb5bnz

>  <RESIDUE_NAME>  (1488) 
ALA   MET

>  <FRAG_NAME>  (1488) 
ETAM   MSM

>  <FRAG_ATOM_NUM>  (1488) 
fragi: 11  fragj: 9

>  <atom.prop.CHAIN_ID>  (1488) 
A A A A A A A A A A A Z Z Z Z Z Z Z Z Z

>  <atom.prop.IS_HEAVY_ATOM>  (1488) 
1 0 0 0 1 0 0 1 0 0 0 1 0 0 0 1 1 0 0 0

>  <DIFUSE_FUNC_ATOM>  (1488) 
n/a

>  <FINAL_SINGLE_POINT_ENERGY>  (1488) 
0

>  <NONCOV_INTER_ENERGY_QM>  (1488) 
0

>  <FF_Energy>  (1488) 
-5.38

>  <QM_Energy>  (1488) 
-13.18

>  <source>  (1488) 
ETAM_MSM

>  <Index>  (1488) 
9468

$$$$
ETAM-pdb5bnf-A-LYS-243:MSM-pdb5bnf-A-MET-207
     RDKit          3D

 20 18  0  0  0  0  0  0  0  0999 V2000
    1.2522    0.8651   -0.0000 C   0  0  0  0  0  0  0  0  0  0  0  0
    1.2814    1.3797   -0.8544 H   0  0  0  0  0  0  0  0  0  0  0  0
    2.0492    0.2680    0.0630 H   0  0  0  0  0  0  0  0  0  0  0  0
    1.2688    1.5662    0.8343 H   0  0  0  0  0  0  0  0  0  0  0  0
    0.0000    0.0000    0.0000 C   0  0  0  0  0  0  0  0  0  0  0  0
    0.0149   -0.5913   -0.8159 H   0  0  0  0  0  0  0  0  0  0  0  0
    0.0148   -0.5913    0.8169 H   0  0  0  0  0  0  0  0  0  0  0  0
   -1.2522    0.7991   -0.0000 N   0  0  0  0  0  4  0  0  0  0  0  0
   -2.0295    0.2003    0.1928 H   0  0  0  0  0  0  0  0  0  0  0  0
   -1.1953    1.5080    0.7033 H   0  0  0  0  0  0  0  0  0  0  0  0
   -1.3745    1.2268   -0.8951 H   0  0  0  0  0  0  0  0  0  0  0  0
    4.6106   -0.1892   -0.5684 C   0  0  0  0  0  0  0  0  0  0  0  0
    4.8751    0.4075    0.2178 H   0  0  0  0  0  0  0  0  0  0  0  0
    4.0618    0.3985   -1.1986 H   0  0  0  0  0  0  0  0  0  0  0  0
    5.5144   -0.5132   -1.0846 H   0  0  0  0  0  0  0  0  0  0  0  0
    3.6497   -1.5917   -0.0076 S   0  0  0  0  0  0  0  0  0  0  0  0
    2.6456   -1.8789   -1.4585 C   0  0  0  0  0  0  0  0  0  0  0  0
    1.8428   -2.4246   -1.2113 H   0  0  0  0  0  0  0  0  0  0  0  0
    2.3445   -1.0026   -1.8397 H   0  0  0  0  0  0  0  0  0  0  0  0
    3.1805   -2.3728   -2.1469 H   0  0  0  0  0  0  0  0  0  0  0  0
  1  5  1  0
  5  8  1  0
  1  2  1  0
  1  3  1  0
  1  4  1  0
  5  6  1  0
  5  7  1  0
  8  9  1  0
  8 10  1  0
  8 11  1  0
 12 16  1  0
 16 17  1  0
 12 13  1  0
 12 14  1  0
 12 15  1  0
 17 18  1  0
 17 19  1  0
 17 20  1  0
M  CHG  1   8   1
M  END
>  <PDB_ID>  (1489) 
pdb5bnf

>  <RESIDUE_NAME>  (1489) 
LYS   MET

>  <FRAG_NAME>  (1489) 
ETAM   MSM

>  <FRAG_ATOM_NUM>  (1489) 
fragi: 11  fragj: 9

>  <atom.prop.CHAIN_ID>  (1489) 
A A A A A A A A A A A Z Z Z Z Z Z Z Z Z

>  <atom.prop.IS_HEAVY_ATOM>  (1489) 
1 0 0 0 1 0 0 1 0 0 0 1 0 0 0 1 1 0 0 0

>  <DIFUSE_FUNC_ATOM>  (1489) 
n/a

>  <FINAL_SINGLE_POINT_ENERGY>  (1489) 
0

>  <NONCOV_INTER_ENERGY_QM>  (1489) 
0

>  <FF_Energy>  (1489) 
2.52

>  <QM_Energy>  (1489) 
-3.33

>  <source>  (1489) 
ETAM_MSM

>  <Index>  (1489) 
9470

$$$$
ETAM-pdb5br0-A-LYS-307:MSM-pdb5br0-B-MET-59
     RDKit          3D

 20 18  0  0  0  0  0  0  0  0999 V2000
    1.2445    0.8671    0.0000 C   0  0  0  0  0  0  0  0  0  0  0  0
    1.0760    1.6692    0.5545 H   0  0  0  0  0  0  0  0  0  0  0  0
    1.4620    1.1135   -0.9322 H   0  0  0  0  0  0  0  0  0  0  0  0
    2.0837    0.3162    0.4244 H   0  0  0  0  0  0  0  0  0  0  0  0
    0.0000    0.0000    0.0000 C   0  0  0  0  0  0  0  0  0  0  0  0
    0.0186   -0.5920   -0.8162 H   0  0  0  0  0  0  0  0  0  0  0  0
    0.0176   -0.5922    0.8169 H   0  0  0  0  0  0  0  0  0  0  0  0
   -1.2445    0.7943    0.0000 N   0  0  0  0  0  4  0  0  0  0  0  0
   -1.4616    1.0814   -0.9345 H   0  0  0  0  0  0  0  0  0  0  0  0
   -1.9979    0.2410    0.3585 H   0  0  0  0  0  0  0  0  0  0  0  0
   -1.1273    1.6056    0.5758 H   0  0  0  0  0  0  0  0  0  0  0  0
   -2.4320    4.9930    1.5391 C   0  0  0  0  0  0  0  0  0  0  0  0
   -3.3821    5.3653    1.5532 H   0  0  0  0  0  0  0  0  0  0  0  0
   -1.8226    5.7549    1.8380 H   0  0  0  0  0  0  0  0  0  0  0  0
   -2.3644    4.1859    2.2685 H   0  0  0  0  0  0  0  0  0  0  0  0
   -1.9904    4.4260   -0.1054 S   0  0  0  0  0  0  0  0  0  0  0  0
   -1.9360    5.9697   -1.0028 C   0  0  0  0  0  0  0  0  0  0  0  0
   -1.2504    5.9134   -1.7315 H   0  0  0  0  0  0  0  0  0  0  0  0
   -2.8334    6.1573   -1.4072 H   0  0  0  0  0  0  0  0  0  0  0  0
   -1.6931    6.7153   -0.3788 H   0  0  0  0  0  0  0  0  0  0  0  0
  1  5  1  0
  5  8  1  0
  1  2  1  0
  1  3  1  0
  1  4  1  0
  5  6  1  0
  5  7  1  0
  8  9  1  0
  8 10  1  0
  8 11  1  0
 12 16  1  0
 16 17  1  0
 12 13  1  0
 12 14  1  0
 12 15  1  0
 17 18  1  0
 17 19  1  0
 17 20  1  0
M  CHG  1   8   1
M  END
>  <PDB_ID>  (1490) 
pdb5br0

>  <RESIDUE_NAME>  (1490) 
LYS   MET

>  <FRAG_NAME>  (1490) 
ETAM   MSM

>  <FRAG_ATOM_NUM>  (1490) 
fragi: 11  fragj: 9

>  <atom.prop.CHAIN_ID>  (1490) 
A A A A A A A A A A A Z Z Z Z Z Z Z Z Z

>  <atom.prop.IS_HEAVY_ATOM>  (1490) 
1 0 0 0 1 0 0 1 0 0 0 1 0 0 0 1 1 0 0 0

>  <DIFUSE_FUNC_ATOM>  (1490) 
n/a

>  <FINAL_SINGLE_POINT_ENERGY>  (1490) 
0

>  <NONCOV_INTER_ENERGY_QM>  (1490) 
0

>  <FF_Energy>  (1490) 
-4.92

>  <QM_Energy>  (1490) 
-11.03

>  <source>  (1490) 
ETAM_MSM

>  <Index>  (1490) 
9491

$$$$
ETAM-pdb5br0-C-LYS-263:MSM-pdb5br0-C-MET-45
     RDKit          3D

 20 18  0  0  0  0  0  0  0  0999 V2000
    1.2430    0.8694   -0.0000 C   0  0  0  0  0  0  0  0  0  0  0  0
    1.2616    1.3979   -0.8430 H   0  0  0  0  0  0  0  0  0  0  0  0
    2.0426    0.2808    0.0565 H   0  0  0  0  0  0  0  0  0  0  0  0
    1.2470    1.5550    0.8474 H   0  0  0  0  0  0  0  0  0  0  0  0
    0.0000    0.0000    0.0000 C   0  0  0  0  0  0  0  0  0  0  0  0
    0.0088   -0.5834   -0.8161 H   0  0  0  0  0  0  0  0  0  0  0  0
    0.0093   -0.5835    0.8163 H   0  0  0  0  0  0  0  0  0  0  0  0
   -1.2430    0.8190   -0.0000 N   0  0  0  0  0  4  0  0  0  0  0  0
   -2.0226    0.2374   -0.2284 H   0  0  0  0  0  0  0  0  0  0  0  0
   -1.3771    1.2182    0.9062 H   0  0  0  0  0  0  0  0  0  0  0  0
   -1.1591    1.5486   -0.6779 H   0  0  0  0  0  0  0  0  0  0  0  0
   -4.7692    3.4357   -1.5332 C   0  0  0  0  0  0  0  0  0  0  0  0
   -5.4140    3.0522   -2.2344 H   0  0  0  0  0  0  0  0  0  0  0  0
   -4.1899    4.1157   -2.0403 H   0  0  0  0  0  0  0  0  0  0  0  0
   -5.3543    3.9721   -0.7861 H   0  0  0  0  0  0  0  0  0  0  0  0
   -3.7507    2.1336   -0.8206 S   0  0  0  0  0  0  0  0  0  0  0  0
   -4.9451    0.8028   -0.7062 C   0  0  0  0  0  0  0  0  0  0  0  0
   -5.3881    0.6725   -1.5949 H   0  0  0  0  0  0  0  0  0  0  0  0
   -4.4809   -0.0431   -0.4396 H   0  0  0  0  0  0  0  0  0  0  0  0
   -5.6373    1.0313   -0.0203 H   0  0  0  0  0  0  0  0  0  0  0  0
  1  5  1  0
  5  8  1  0
  1  2  1  0
  1  3  1  0
  1  4  1  0
  5  6  1  0
  5  7  1  0
  8  9  1  0
  8 10  1  0
  8 11  1  0
 12 16  1  0
 16 17  1  0
 12 13  1  0
 12 14  1  0
 12 15  1  0
 17 18  1  0
 17 19  1  0
 17 20  1  0
M  CHG  1   8   1
M  END
>  <PDB_ID>  (1491) 
pdb5br0

>  <RESIDUE_NAME>  (1491) 
LYS   MET

>  <FRAG_NAME>  (1491) 
ETAM   MSM

>  <FRAG_ATOM_NUM>  (1491) 
fragi: 11  fragj: 9

>  <atom.prop.CHAIN_ID>  (1491) 
A A A A A A A A A A A Z Z Z Z Z Z Z Z Z

>  <atom.prop.IS_HEAVY_ATOM>  (1491) 
1 0 0 0 1 0 0 1 0 0 0 1 0 0 0 1 1 0 0 0

>  <DIFUSE_FUNC_ATOM>  (1491) 
n/a

>  <FINAL_SINGLE_POINT_ENERGY>  (1491) 
0

>  <NONCOV_INTER_ENERGY_QM>  (1491) 
0

>  <FF_Energy>  (1491) 
-2.1

>  <QM_Energy>  (1491) 
-10.98

>  <source>  (1491) 
ETAM_MSM

>  <Index>  (1491) 
9492

$$$$
ETAM-pdb5br0-C-LYS-307:MSM-pdb5br0-D-MET-59
     RDKit          3D

 20 18  0  0  0  0  0  0  0  0999 V2000
    1.2455    0.8683    0.0000 C   0  0  0  0  0  0  0  0  0  0  0  0
    1.0773    1.6667    0.5604 H   0  0  0  0  0  0  0  0  0  0  0  0
    1.4564    1.1234   -0.9325 H   0  0  0  0  0  0  0  0  0  0  0  0
    2.0894    0.3173    0.4149 H   0  0  0  0  0  0  0  0  0  0  0  0
    0.0000    0.0000    0.0000 C   0  0  0  0  0  0  0  0  0  0  0  0
    0.0193   -0.5916   -0.8165 H   0  0  0  0  0  0  0  0  0  0  0  0
    0.0188   -0.5922    0.8167 H   0  0  0  0  0  0  0  0  0  0  0  0
   -1.2455    0.7931    0.0000 N   0  0  0  0  0  4  0  0  0  0  0  0
   -1.2417    1.4270    0.7757 H   0  0  0  0  0  0  0  0  0  0  0  0
   -1.3137    1.3146   -0.8519 H   0  0  0  0  0  0  0  0  0  0  0  0
   -2.0350    0.1816    0.0765 H   0  0  0  0  0  0  0  0  0  0  0  0
   -2.4434    4.9048    1.5607 C   0  0  0  0  0  0  0  0  0  0  0  0
   -3.3981    5.2727    1.5873 H   0  0  0  0  0  0  0  0  0  0  0  0
   -1.8398    5.6748    1.8612 H   0  0  0  0  0  0  0  0  0  0  0  0
   -2.3625    4.0950    2.2857 H   0  0  0  0  0  0  0  0  0  0  0  0
   -2.0118    4.3663   -0.0981 S   0  0  0  0  0  0  0  0  0  0  0  0
   -2.0115    5.9179   -0.9779 C   0  0  0  0  0  0  0  0  0  0  0  0
   -2.1286    6.6747   -0.3315 H   0  0  0  0  0  0  0  0  0  0  0  0
   -1.1419    6.0326   -1.4635 H   0  0  0  0  0  0  0  0  0  0  0  0
   -2.7628    5.9328   -1.6407 H   0  0  0  0  0  0  0  0  0  0  0  0
  1  5  1  0
  5  8  1  0
  1  2  1  0
  1  3  1  0
  1  4  1  0
  5  6  1  0
  5  7  1  0
  8  9  1  0
  8 10  1  0
  8 11  1  0
 12 16  1  0
 16 17  1  0
 12 13  1  0
 12 14  1  0
 12 15  1  0
 17 18  1  0
 17 19  1  0
 17 20  1  0
M  CHG  1   8   1
M  END
>  <PDB_ID>  (1492) 
pdb5br0

>  <RESIDUE_NAME>  (1492) 
LYS   MET

>  <FRAG_NAME>  (1492) 
ETAM   MSM

>  <FRAG_ATOM_NUM>  (1492) 
fragi: 11  fragj: 9

>  <atom.prop.CHAIN_ID>  (1492) 
A A A A A A A A A A A Z Z Z Z Z Z Z Z Z

>  <atom.prop.IS_HEAVY_ATOM>  (1492) 
1 0 0 0 1 0 0 1 0 0 0 1 0 0 0 1 1 0 0 0

>  <DIFUSE_FUNC_ATOM>  (1492) 
n/a

>  <FINAL_SINGLE_POINT_ENERGY>  (1492) 
0

>  <NONCOV_INTER_ENERGY_QM>  (1492) 
0

>  <FF_Energy>  (1492) 
-5.01

>  <QM_Energy>  (1492) 
-11.06

>  <source>  (1492) 
ETAM_MSM

>  <Index>  (1492) 
9493

$$$$
ETAM-pdb6bhq-B-LYS-338:MSM-pdb6bhq-B-MET-314
     RDKit          3D

 20 18  0  0  0  0  0  0  0  0999 V2000
    1.2236    0.9342    0.0000 C   0  0  0  0  0  0  0  0  0  0  0  0
    2.0444    0.3770   -0.1204 H   0  0  0  0  0  0  0  0  0  0  0  0
    1.2622    1.4012    0.8828 H   0  0  0  0  0  0  0  0  0  0  0  0
    1.2002    1.6869   -0.7880 H   0  0  0  0  0  0  0  0  0  0  0  0
    0.0000    0.0000    0.0000 C   0  0  0  0  0  0  0  0  0  0  0  0
    0.0602   -0.5810   -0.8161 H   0  0  0  0  0  0  0  0  0  0  0  0
    0.0595   -0.5804    0.8164 H   0  0  0  0  0  0  0  0  0  0  0  0
   -1.2236    0.7579    0.0000 N   0  0  0  0  0  4  0  0  0  0  0  0
   -2.0147    0.1573   -0.1748 H   0  0  0  0  0  0  0  0  0  0  0  0
   -1.3622    1.2104    0.8897 H   0  0  0  0  0  0  0  0  0  0  0  0
   -1.2023    1.4681   -0.7156 H   0  0  0  0  0  0  0  0  0  0  0  0
    3.3653   -2.2469    3.5911 C   0  0  0  0  0  0  0  0  0  0  0  0
    4.3916   -2.2657    3.4775 H   0  0  0  0  0  0  0  0  0  0  0  0
    3.1577   -3.0683    4.1829 H   0  0  0  0  0  0  0  0  0  0  0  0
    3.1052   -1.3505    4.1540 H   0  0  0  0  0  0  0  0  0  0  0  0
    2.5431   -2.4107    1.9670 S   0  0  0  0  0  0  0  0  0  0  0  0
    0.8021   -2.3777    2.5011 C   0  0  0  0  0  0  0  0  0  0  0  0
    0.2495   -1.9902    1.7687 H   0  0  0  0  0  0  0  0  0  0  0  0
    0.5086   -3.3092    2.6962 H   0  0  0  0  0  0  0  0  0  0  0  0
    0.7283   -1.8155    3.3206 H   0  0  0  0  0  0  0  0  0  0  0  0
  1  5  1  0
  5  8  1  0
  1  2  1  0
  1  3  1  0
  1  4  1  0
  5  6  1  0
  5  7  1  0
  8  9  1  0
  8 10  1  0
  8 11  1  0
 12 16  1  0
 16 17  1  0
 12 13  1  0
 12 14  1  0
 12 15  1  0
 17 18  1  0
 17 19  1  0
 17 20  1  0
M  CHG  1   8   1
M  END
>  <PDB_ID>  (1493) 
pdb6bhq

>  <RESIDUE_NAME>  (1493) 
LYS   MET

>  <FRAG_NAME>  (1493) 
ETAM   MSM

>  <FRAG_ATOM_NUM>  (1493) 
fragi: 11  fragj: 9

>  <atom.prop.CHAIN_ID>  (1493) 
A A A A A A A A A A A Z Z Z Z Z Z Z Z Z

>  <atom.prop.IS_HEAVY_ATOM>  (1493) 
1 0 0 0 1 0 0 1 0 0 0 1 0 0 0 1 1 0 0 0

>  <DIFUSE_FUNC_ATOM>  (1493) 
n/a

>  <FINAL_SINGLE_POINT_ENERGY>  (1493) 
0

>  <NONCOV_INTER_ENERGY_QM>  (1493) 
0

>  <FF_Energy>  (1493) 
4.74

>  <QM_Energy>  (1493) 
-1.81

>  <source>  (1493) 
ETAM_MSM

>  <Index>  (1493) 
9508

$$$$
ETAM-pdb5bto-B-LYS-156:MSM-pdb5bto-B-MET-168
     RDKit          3D

 20 18  0  0  0  0  0  0  0  0999 V2000
    1.2432    0.8722    0.0000 C   0  0  0  0  0  0  0  0  0  0  0  0
    1.1857    1.5066    0.7663 H   0  0  0  0  0  0  0  0  0  0  0  0
    1.2763    1.3757   -0.8589 H   0  0  0  0  0  0  0  0  0  0  0  0
    2.1521    0.2788    0.0994 H   0  0  0  0  0  0  0  0  0  0  0  0
    0.0000    0.0000    0.0000 C   0  0  0  0  0  0  0  0  0  0  0  0
    0.0064   -0.5796   -0.8165 H   0  0  0  0  0  0  0  0  0  0  0  0
    0.0061   -0.5794    0.8161 H   0  0  0  0  0  0  0  0  0  0  0  0
   -1.2432    0.8277   -0.0000 N   0  0  0  0  0  4  0  0  0  0  0  0
   -1.9210    0.4024   -0.5972 H   0  0  0  0  0  0  0  0  0  0  0  0
   -1.6012    0.8826    0.9307 H   0  0  0  0  0  0  0  0  0  0  0  0
   -1.0284    1.7443   -0.3337 H   0  0  0  0  0  0  0  0  0  0  0  0
   -0.5931    2.7764   -4.2891 C   0  0  0  0  0  0  0  0  0  0  0  0
   -1.1352    3.5814   -3.9802 H   0  0  0  0  0  0  0  0  0  0  0  0
   -1.2580    2.1195   -4.6962 H   0  0  0  0  0  0  0  0  0  0  0  0
    0.1023    3.0988   -5.0641 H   0  0  0  0  0  0  0  0  0  0  0  0
    0.2808    2.0257   -2.9069 S   0  0  0  0  0  0  0  0  0  0  0  0
    1.2990    3.4121   -2.3897 C   0  0  0  0  0  0  0  0  0  0  0  0
    2.0383    3.5467   -3.0495 H   0  0  0  0  0  0  0  0  0  0  0  0
    0.7379    4.2392   -2.3437 H   0  0  0  0  0  0  0  0  0  0  0  0
    1.6872    3.2226   -1.4881 H   0  0  0  0  0  0  0  0  0  0  0  0
  1  5  1  0
  5  8  1  0
  1  2  1  0
  1  3  1  0
  1  4  1  0
  5  6  1  0
  5  7  1  0
  8  9  1  0
  8 10  1  0
  8 11  1  0
 12 16  1  0
 16 17  1  0
 12 13  1  0
 12 14  1  0
 12 15  1  0
 17 18  1  0
 17 19  1  0
 17 20  1  0
M  CHG  1   8   1
M  END
>  <PDB_ID>  (1494) 
pdb5bto

>  <RESIDUE_NAME>  (1494) 
LYS   MET

>  <FRAG_NAME>  (1494) 
ETAM   MSM

>  <FRAG_ATOM_NUM>  (1494) 
fragi: 11  fragj: 9

>  <atom.prop.CHAIN_ID>  (1494) 
A A A A A A A A A A A Z Z Z Z Z Z Z Z Z

>  <atom.prop.IS_HEAVY_ATOM>  (1494) 
1 0 0 0 1 0 0 1 0 0 0 1 0 0 0 1 1 0 0 0

>  <DIFUSE_FUNC_ATOM>  (1494) 
n/a

>  <FINAL_SINGLE_POINT_ENERGY>  (1494) 
0

>  <NONCOV_INTER_ENERGY_QM>  (1494) 
0

>  <FF_Energy>  (1494) 
2.1

>  <QM_Energy>  (1494) 
-11.15

>  <source>  (1494) 
ETAM_MSM

>  <Index>  (1494) 
9510

$$$$
ETAM-pdb6bk6-A-LYS-180:MSM-pdb6bk6-A-MET-63
     RDKit          3D

 20 18  0  0  0  0  0  0  0  0999 V2000
    1.2205    0.9031   -0.0000 C   0  0  0  0  0  0  0  0  0  0  0  0
    1.1375    1.5450    0.7686 H   0  0  0  0  0  0  0  0  0  0  0  0
    1.2247    1.4261   -0.8575 H   0  0  0  0  0  0  0  0  0  0  0  0
    2.1626    0.3625    0.0909 H   0  0  0  0  0  0  0  0  0  0  0  0
    0.0000    0.0000    0.0000 C   0  0  0  0  0  0  0  0  0  0  0  0
    0.0034   -0.5560   -0.8167 H   0  0  0  0  0  0  0  0  0  0  0  0
    0.0025   -0.5557    0.8159 H   0  0  0  0  0  0  0  0  0  0  0  0
   -1.2205    0.8682    0.0000 N   0  0  0  0  0  4  0  0  0  0  0  0
   -2.0144    0.3163    0.2463 H   0  0  0  0  0  0  0  0  0  0  0  0
   -1.1002    1.6022    0.6654 H   0  0  0  0  0  0  0  0  0  0  0  0
   -1.3461    1.2556   -0.9116 H   0  0  0  0  0  0  0  0  0  0  0  0
    0.2530    2.3104   -3.3637 C   0  0  0  0  0  0  0  0  0  0  0  0
    1.0731    1.7017   -3.2896 H   0  0  0  0  0  0  0  0  0  0  0  0
    0.2274    2.8483   -2.4927 H   0  0  0  0  0  0  0  0  0  0  0  0
    0.3950    2.9949   -4.2000 H   0  0  0  0  0  0  0  0  0  0  0  0
   -1.2411    1.3413   -3.5535 S   0  0  0  0  0  0  0  0  0  0  0  0
   -2.4430    2.6723   -3.4398 C   0  0  0  0  0  0  0  0  0  0  0  0
   -3.1287    2.4439   -2.7487 H   0  0  0  0  0  0  0  0  0  0  0  0
   -1.9785    3.5198   -3.1816 H   0  0  0  0  0  0  0  0  0  0  0  0
   -2.8902    2.7942   -4.3264 H   0  0  0  0  0  0  0  0  0  0  0  0
  1  5  1  0
  5  8  1  0
  1  2  1  0
  1  3  1  0
  1  4  1  0
  5  6  1  0
  5  7  1  0
  8  9  1  0
  8 10  1  0
  8 11  1  0
 12 16  1  0
 16 17  1  0
 12 13  1  0
 12 14  1  0
 12 15  1  0
 17 18  1  0
 17 19  1  0
 17 20  1  0
M  CHG  1   8   1
M  END
>  <PDB_ID>  (1495) 
pdb6bk6

>  <RESIDUE_NAME>  (1495) 
LYS   MET

>  <FRAG_NAME>  (1495) 
ETAM   MSM

>  <FRAG_ATOM_NUM>  (1495) 
fragi: 11  fragj: 9

>  <atom.prop.CHAIN_ID>  (1495) 
A A A A A A A A A A A Z Z Z Z Z Z Z Z Z

>  <atom.prop.IS_HEAVY_ATOM>  (1495) 
1 0 0 0 1 0 0 1 0 0 0 1 0 0 0 1 1 0 0 0

>  <DIFUSE_FUNC_ATOM>  (1495) 
n/a

>  <FINAL_SINGLE_POINT_ENERGY>  (1495) 
0

>  <NONCOV_INTER_ENERGY_QM>  (1495) 
0

>  <FF_Energy>  (1495) 
-4.45

>  <QM_Energy>  (1495) 
-12.79

>  <source>  (1495) 
ETAM_MSM

>  <Index>  (1495) 
9512

$$$$
ETAM-pdb5brp-A-LYS-195:MSM-pdb5brp-A-MET-81
     RDKit          3D

 20 18  0  0  0  0  0  0  0  0999 V2000
    1.2556    0.8740    0.0000 C   0  0  0  0  0  0  0  0  0  0  0  0
    2.0367    0.3007    0.2260 H   0  0  0  0  0  0  0  0  0  0  0  0
    1.1399    1.5868    0.6828 H   0  0  0  0  0  0  0  0  0  0  0  0
    1.4241    1.3359   -0.9728 H   0  0  0  0  0  0  0  0  0  0  0  0
    0.0000    0.0000    0.0000 C   0  0  0  0  0  0  0  0  0  0  0  0
    0.0157   -0.5853   -0.8162 H   0  0  0  0  0  0  0  0  0  0  0  0
    0.0147   -0.5856    0.8157 H   0  0  0  0  0  0  0  0  0  0  0  0
   -1.2556    0.8078   -0.0000 N   0  0  0  0  0  4  0  0  0  0  0  0
   -1.6640    0.7809   -0.9109 H   0  0  0  0  0  0  0  0  0  0  0  0
   -1.8934    0.4248    0.6661 H   0  0  0  0  0  0  0  0  0  0  0  0
   -1.0400    1.7516    0.2450 H   0  0  0  0  0  0  0  0  0  0  0  0
   -1.7073    2.3121    3.5434 C   0  0  0  0  0  0  0  0  0  0  0  0
   -2.5223    1.8923    3.0873 H   0  0  0  0  0  0  0  0  0  0  0  0
   -1.5267    3.1860    3.0414 H   0  0  0  0  0  0  0  0  0  0  0  0
   -1.9762    2.5542    4.5716 H   0  0  0  0  0  0  0  0  0  0  0  0
   -0.2806    1.2108    3.4457 S   0  0  0  0  0  0  0  0  0  0  0  0
   -1.0040   -0.3257    4.0434 C   0  0  0  0  0  0  0  0  0  0  0  0
   -0.3172   -1.0516    4.0058 H   0  0  0  0  0  0  0  0  0  0  0  0
   -1.3100   -0.2026    4.9869 H   0  0  0  0  0  0  0  0  0  0  0  0
   -1.7830   -0.5716    3.4671 H   0  0  0  0  0  0  0  0  0  0  0  0
  1  5  1  0
  5  8  1  0
  1  2  1  0
  1  3  1  0
  1  4  1  0
  5  6  1  0
  5  7  1  0
  8  9  1  0
  8 10  1  0
  8 11  1  0
 12 16  1  0
 16 17  1  0
 12 13  1  0
 12 14  1  0
 12 15  1  0
 17 18  1  0
 17 19  1  0
 17 20  1  0
M  CHG  1   8   1
M  END
>  <PDB_ID>  (1496) 
pdb5brp

>  <RESIDUE_NAME>  (1496) 
LYS   MET

>  <FRAG_NAME>  (1496) 
ETAM   MSM

>  <FRAG_ATOM_NUM>  (1496) 
fragi: 11  fragj: 9

>  <atom.prop.CHAIN_ID>  (1496) 
A A A A A A A A A A A Z Z Z Z Z Z Z Z Z

>  <atom.prop.IS_HEAVY_ATOM>  (1496) 
1 0 0 0 1 0 0 1 0 0 0 1 0 0 0 1 1 0 0 0

>  <DIFUSE_FUNC_ATOM>  (1496) 
n/a

>  <FINAL_SINGLE_POINT_ENERGY>  (1496) 
0

>  <NONCOV_INTER_ENERGY_QM>  (1496) 
0

>  <FF_Energy>  (1496) 
-4.17

>  <QM_Energy>  (1496) 
-10.01

>  <source>  (1496) 
ETAM_MSM

>  <Index>  (1496) 
9513

$$$$
ETAM-pdb5bwj-A-LYS-31:MSM-pdb5bwj-A-MET-70
     RDKit          3D

 20 18  0  0  0  0  0  0  0  0999 V2000
    1.2322    0.8734    0.0000 C   0  0  0  0  0  0  0  0  0  0  0  0
    1.2147    1.4521    0.8167 H   0  0  0  0  0  0  0  0  0  0  0  0
    1.2148    1.4535   -0.8165 H   0  0  0  0  0  0  0  0  0  0  0  0
    2.1572    0.2969    0.0003 H   0  0  0  0  0  0  0  0  0  0  0  0
    0.0000    0.0000    0.0000 C   0  0  0  0  0  0  0  0  0  0  0  0
    0.0075   -0.5788   -0.8170 H   0  0  0  0  0  0  0  0  0  0  0  0
    0.0066   -0.5791    0.8158 H   0  0  0  0  0  0  0  0  0  0  0  0
   -1.2322    0.8279   -0.0000 N   0  0  0  0  0  4  0  0  0  0  0  0
   -1.0482    1.7000    0.4535 H   0  0  0  0  0  0  0  0  0  0  0  0
   -1.5205    0.9974   -0.9433 H   0  0  0  0  0  0  0  0  0  0  0  0
   -1.9590    0.3445    0.4888 H   0  0  0  0  0  0  0  0  0  0  0  0
    2.7690   -3.6350   -3.0093 C   0  0  0  0  0  0  0  0  0  0  0  0
    2.7497   -4.1779   -3.8118 H   0  0  0  0  0  0  0  0  0  0  0  0
    3.1711   -4.1300   -2.2792 H   0  0  0  0  0  0  0  0  0  0  0  0
    3.3544   -2.7352   -3.1982 H   0  0  0  0  0  0  0  0  0  0  0  0
    1.0668   -3.2393   -2.5533 S   0  0  0  0  0  0  0  0  0  0  0  0
    1.3033   -2.4511   -0.9622 C   0  0  0  0  0  0  0  0  0  0  0  0
    0.4381   -2.1885   -0.6083 H   0  0  0  0  0  0  0  0  0  0  0  0
    1.7298   -3.0799   -0.3591 H   0  0  0  0  0  0  0  0  0  0  0  0
    1.8653   -1.6692   -1.0777 H   0  0  0  0  0  0  0  0  0  0  0  0
  1  5  1  0
  5  8  1  0
  1  2  1  0
  1  3  1  0
  1  4  1  0
  5  6  1  0
  5  7  1  0
  8  9  1  0
  8 10  1  0
  8 11  1  0
 12 16  1  0
 16 17  1  0
 12 13  1  0
 12 14  1  0
 12 15  1  0
 17 18  1  0
 17 19  1  0
 17 20  1  0
M  CHG  1   8   1
M  END
>  <PDB_ID>  (1497) 
pdb5bwj

>  <RESIDUE_NAME>  (1497) 
LYS   MET

>  <FRAG_NAME>  (1497) 
ETAM   MSM

>  <FRAG_ATOM_NUM>  (1497) 
fragi: 11  fragj: 9

>  <atom.prop.CHAIN_ID>  (1497) 
A A A A A A A A A A A Z Z Z Z Z Z Z Z Z

>  <atom.prop.IS_HEAVY_ATOM>  (1497) 
1 0 0 0 1 0 0 1 0 0 0 1 0 0 0 1 1 0 0 0

>  <DIFUSE_FUNC_ATOM>  (1497) 
n/a

>  <FINAL_SINGLE_POINT_ENERGY>  (1497) 
0

>  <NONCOV_INTER_ENERGY_QM>  (1497) 
0

>  <FF_Energy>  (1497) 
16.5

>  <QM_Energy>  (1497) 
3.99

>  <source>  (1497) 
ETAM_MSM

>  <Index>  (1497) 
9535

$$$$
ETAM-pdb5bxb-A-LYS-72:MSM-pdb5bxb-A-MET-40
     RDKit          3D

 20 18  0  0  0  0  0  0  0  0999 V2000
    1.2545    0.8623   -0.0000 C   0  0  0  0  0  0  0  0  0  0  0  0
    1.9862    0.3576    0.4525 H   0  0  0  0  0  0  0  0  0  0  0  0
    1.0618    1.7035    0.5005 H   0  0  0  0  0  0  0  0  0  0  0  0
    1.5778    1.1198   -1.0086 H   0  0  0  0  0  0  0  0  0  0  0  0
    0.0000    0.0000    0.0000 C   0  0  0  0  0  0  0  0  0  0  0  0
    0.0155   -0.5933   -0.8166 H   0  0  0  0  0  0  0  0  0  0  0  0
    0.0160   -0.5937    0.8163 H   0  0  0  0  0  0  0  0  0  0  0  0
   -1.2545    0.7951    0.0000 N   0  0  0  0  0  4  0  0  0  0  0  0
   -1.1836    1.5288    0.6759 H   0  0  0  0  0  0  0  0  0  0  0  0
   -1.3987    1.1900   -0.9072 H   0  0  0  0  0  0  0  0  0  0  0  0
   -2.0245    0.2013    0.2320 H   0  0  0  0  0  0  0  0  0  0  0  0
    0.7028   -3.7017    4.7166 C   0  0  0  0  0  0  0  0  0  0  0  0
    0.1439   -3.2911    5.4719 H   0  0  0  0  0  0  0  0  0  0  0  0
    1.6612   -3.3732    4.8754 H   0  0  0  0  0  0  0  0  0  0  0  0
    0.6851   -4.7863    4.8233 H   0  0  0  0  0  0  0  0  0  0  0  0
    0.1012   -3.1548    3.1081 S   0  0  0  0  0  0  0  0  0  0  0  0
    0.1450   -1.3786    3.3265 C   0  0  0  0  0  0  0  0  0  0  0  0
   -0.0198   -0.9276    2.4480 H   0  0  0  0  0  0  0  0  0  0  0  0
   -0.5639   -1.1025    3.9780 H   0  0  0  0  0  0  0  0  0  0  0  0
    1.0419   -1.1052    3.6769 H   0  0  0  0  0  0  0  0  0  0  0  0
  1  5  1  0
  5  8  1  0
  1  2  1  0
  1  3  1  0
  1  4  1  0
  5  6  1  0
  5  7  1  0
  8  9  1  0
  8 10  1  0
  8 11  1  0
 12 16  1  0
 16 17  1  0
 12 13  1  0
 12 14  1  0
 12 15  1  0
 17 18  1  0
 17 19  1  0
 17 20  1  0
M  CHG  1   8   1
M  END
>  <PDB_ID>  (1498) 
pdb5bxb

>  <RESIDUE_NAME>  (1498) 
LYS   MET

>  <FRAG_NAME>  (1498) 
ETAM   MSM

>  <FRAG_ATOM_NUM>  (1498) 
fragi: 11  fragj: 9

>  <atom.prop.CHAIN_ID>  (1498) 
A A A A A A A A A A A Z Z Z Z Z Z Z Z Z

>  <atom.prop.IS_HEAVY_ATOM>  (1498) 
1 0 0 0 1 0 0 1 0 0 0 1 0 0 0 1 1 0 0 0

>  <DIFUSE_FUNC_ATOM>  (1498) 
n/a

>  <FINAL_SINGLE_POINT_ENERGY>  (1498) 
0

>  <NONCOV_INTER_ENERGY_QM>  (1498) 
0

>  <FF_Energy>  (1498) 
7.55

>  <QM_Energy>  (1498) 
0.5

>  <source>  (1498) 
ETAM_MSM

>  <Index>  (1498) 
9537

$$$$
ETAM-pdb6bqc-A-LYS-162:MSM-pdb6bqc-A-MET-158
     RDKit          3D

 20 18  0  0  0  0  0  0  0  0999 V2000
    1.2265    0.8874    0.0000 C   0  0  0  0  0  0  0  0  0  0  0  0
    1.1860    1.4542    0.7856 H   0  0  0  0  0  0  0  0  0  0  0  0
    1.2002    1.4332   -0.8018 H   0  0  0  0  0  0  0  0  0  0  0  0
    2.1614    0.3272    0.0155 H   0  0  0  0  0  0  0  0  0  0  0  0
    0.0000    0.0000    0.0000 C   0  0  0  0  0  0  0  0  0  0  0  0
   -0.0056   -0.5519   -0.7967 H   0  0  0  0  0  0  0  0  0  0  0  0
   -0.0050   -0.5506    0.7992 H   0  0  0  0  0  0  0  0  0  0  0  0
   -1.2265    0.8535    0.0000 N   0  0  0  0  0  4  0  0  0  0  0  0
   -1.9531    0.3398    0.0007 H   0  0  0  0  0  0  0  0  0  0  0  0
   -1.2372    1.3704    0.7235 H   0  0  0  0  0  0  0  0  0  0  0  0
   -1.2370    1.3688   -0.7252 H   0  0  0  0  0  0  0  0  0  0  0  0
    0.3439   -1.1936    3.3174 C   0  0  0  0  0  0  0  0  0  0  0  0
    0.4643   -0.2742    3.0348 H   0  0  0  0  0  0  0  0  0  0  0  0
    0.8981   -1.7795    2.7778 H   0  0  0  0  0  0  0  0  0  0  0  0
    0.6474   -1.2845    4.3604 H   0  0  0  0  0  0  0  0  0  0  0  0
   -1.3696   -1.6377    3.0284 S   0  0  0  0  0  0  0  0  0  0  0  0
   -2.2483   -0.4660    4.0778 C   0  0  0  0  0  0  0  0  0  0  0  0
   -3.2017   -0.6218    3.9949 H   0  0  0  0  0  0  0  0  0  0  0  0
   -1.9701   -0.5975    4.9978 H   0  0  0  0  0  0  0  0  0  0  0  0
   -2.0332    0.4362    3.7926 H   0  0  0  0  0  0  0  0  0  0  0  0
  1  5  1  0
  5  8  1  0
  1  2  1  0
  1  3  1  0
  1  4  1  0
  5  6  1  0
  5  7  1  0
  8  9  1  0
  8 10  1  0
  8 11  1  0
 12 16  1  0
 16 17  1  0
 12 13  1  0
 12 14  1  0
 12 15  1  0
 17 18  1  0
 17 19  1  0
 17 20  1  0
M  CHG  1   8   1
M  END
>  <PDB_ID>  (1499) 
pdb6bqc

>  <RESIDUE_NAME>  (1499) 
LYS   MET

>  <FRAG_NAME>  (1499) 
ETAM   MSM

>  <FRAG_ATOM_NUM>  (1499) 
fragi: 11  fragj: 9

>  <atom.prop.CHAIN_ID>  (1499) 
A A A A A A A A A A A Z Z Z Z Z Z Z Z Z

>  <atom.prop.IS_HEAVY_ATOM>  (1499) 
1 0 0 0 1 0 0 1 0 0 0 1 0 0 0 1 1 0 0 0

>  <DIFUSE_FUNC_ATOM>  (1499) 
n/a

>  <FINAL_SINGLE_POINT_ENERGY>  (1499) 
0

>  <NONCOV_INTER_ENERGY_QM>  (1499) 
0

>  <FF_Energy>  (1499) 
-2.42

>  <QM_Energy>  (1499) 
-7.67

>  <source>  (1499) 
ETAM_MSM

>  <Index>  (1499) 
9540

$$$$
ETAM-pdb6bwo-A-LYS-383:MSM-pdb6bwo-A-MET-357
     RDKit          3D

 20 18  0  0  0  0  0  0  0  0999 V2000
    1.2339    0.8623    0.0000 C   0  0  0  0  0  0  0  0  0  0  0  0
    1.4332    1.1446    0.9247 H   0  0  0  0  0  0  0  0  0  0  0  0
    1.0892    1.6366   -0.5939 H   0  0  0  0  0  0  0  0  0  0  0  0
    2.0781    0.2854   -0.3778 H   0  0  0  0  0  0  0  0  0  0  0  0
    0.0000    0.0000    0.0000 C   0  0  0  0  0  0  0  0  0  0  0  0
    0.0105   -0.5883   -0.8164 H   0  0  0  0  0  0  0  0  0  0  0  0
    0.0093   -0.5887    0.8168 H   0  0  0  0  0  0  0  0  0  0  0  0
   -1.2339    0.8102    0.0000 N   0  0  0  0  0  4  0  0  0  0  0  0
   -1.0295    1.7369    0.3202 H   0  0  0  0  0  0  0  0  0  0  0  0
   -1.6078    0.8559   -0.9284 H   0  0  0  0  0  0  0  0  0  0  0  0
   -1.9116    0.3936    0.6088 H   0  0  0  0  0  0  0  0  0  0  0  0
   -2.5737   -2.6944   -3.7228 C   0  0  0  0  0  0  0  0  0  0  0  0
   -2.6949   -2.3235   -4.6595 H   0  0  0  0  0  0  0  0  0  0  0  0
   -3.4939   -2.7442   -3.2991 H   0  0  0  0  0  0  0  0  0  0  0  0
   -2.1592   -3.7002   -3.7918 H   0  0  0  0  0  0  0  0  0  0  0  0
   -1.4805   -1.6617   -2.7608 S   0  0  0  0  0  0  0  0  0  0  0  0
   -0.8700   -0.6062   -4.0545 C   0  0  0  0  0  0  0  0  0  0  0  0
    0.0398   -0.9127   -4.3463 H   0  0  0  0  0  0  0  0  0  0  0  0
   -1.4916   -0.6351   -4.8414 H   0  0  0  0  0  0  0  0  0  0  0  0
   -0.8061    0.3387   -3.7240 H   0  0  0  0  0  0  0  0  0  0  0  0
  1  5  1  0
  5  8  1  0
  1  2  1  0
  1  3  1  0
  1  4  1  0
  5  6  1  0
  5  7  1  0
  8  9  1  0
  8 10  1  0
  8 11  1  0
 12 16  1  0
 16 17  1  0
 12 13  1  0
 12 14  1  0
 12 15  1  0
 17 18  1  0
 17 19  1  0
 17 20  1  0
M  CHG  1   8   1
M  END
>  <PDB_ID>  (1500) 
pdb6bwo

>  <RESIDUE_NAME>  (1500) 
LYS   MET

>  <FRAG_NAME>  (1500) 
ETAM   MSM

>  <FRAG_ATOM_NUM>  (1500) 
fragi: 11  fragj: 9

>  <atom.prop.CHAIN_ID>  (1500) 
A A A A A A A A A A A Z Z Z Z Z Z Z Z Z

>  <atom.prop.IS_HEAVY_ATOM>  (1500) 
1 0 0 0 1 0 0 1 0 0 0 1 0 0 0 1 1 0 0 0

>  <DIFUSE_FUNC_ATOM>  (1500) 
n/a

>  <FINAL_SINGLE_POINT_ENERGY>  (1500) 
0

>  <NONCOV_INTER_ENERGY_QM>  (1500) 
0

>  <FF_Energy>  (1500) 
-4.07

>  <QM_Energy>  (1500) 
-10.6

>  <source>  (1500) 
ETAM_MSM

>  <Index>  (1500) 
9565

$$$$
ETAM-pdb6bwo-B-LYS-383:MSM-pdb6bwo-B-MET-357
     RDKit          3D

 20 18  0  0  0  0  0  0  0  0999 V2000
    1.2639    0.8444    0.0000 C   0  0  0  0  0  0  0  0  0  0  0  0
    1.4401    1.1593    0.9173 H   0  0  0  0  0  0  0  0  0  0  0  0
    1.1488    1.5953   -0.6293 H   0  0  0  0  0  0  0  0  0  0  0  0
    2.1113    0.2425   -0.3284 H   0  0  0  0  0  0  0  0  0  0  0  0
    0.0000    0.0000    0.0000 C   0  0  0  0  0  0  0  0  0  0  0  0
    0.0123   -0.6030   -0.8160 H   0  0  0  0  0  0  0  0  0  0  0  0
    0.0122   -0.6037    0.8168 H   0  0  0  0  0  0  0  0  0  0  0  0
   -1.2639    0.7840    0.0000 N   0  0  0  0  0  4  0  0  0  0  0  0
   -1.5990    0.8727    0.9377 H   0  0  0  0  0  0  0  0  0  0  0  0
   -1.0913    1.6922   -0.3806 H   0  0  0  0  0  0  0  0  0  0  0  0
   -1.9473    0.3121   -0.5568 H   0  0  0  0  0  0  0  0  0  0  0  0
   -2.6336   -2.7477   -4.0676 C   0  0  0  0  0  0  0  0  0  0  0  0
   -2.6439   -2.2829   -4.9777 H   0  0  0  0  0  0  0  0  0  0  0  0
   -3.6120   -2.8448   -3.7893 H   0  0  0  0  0  0  0  0  0  0  0  0
   -2.2030   -3.7418   -4.1877 H   0  0  0  0  0  0  0  0  0  0  0  0
   -1.7202   -1.7814   -2.8673 S   0  0  0  0  0  0  0  0  0  0  0  0
   -0.8336   -0.6903   -3.9526 C   0  0  0  0  0  0  0  0  0  0  0  0
   -0.8870   -1.0271   -4.8966 H   0  0  0  0  0  0  0  0  0  0  0  0
   -1.2301    0.2311   -3.9122 H   0  0  0  0  0  0  0  0  0  0  0  0
    0.1303   -0.6420   -3.6787 H   0  0  0  0  0  0  0  0  0  0  0  0
  1  5  1  0
  5  8  1  0
  1  2  1  0
  1  3  1  0
  1  4  1  0
  5  6  1  0
  5  7  1  0
  8  9  1  0
  8 10  1  0
  8 11  1  0
 12 16  1  0
 16 17  1  0
 12 13  1  0
 12 14  1  0
 12 15  1  0
 17 18  1  0
 17 19  1  0
 17 20  1  0
M  CHG  1   8   1
M  END
>  <PDB_ID>  (1501) 
pdb6bwo

>  <RESIDUE_NAME>  (1501) 
LYS   MET

>  <FRAG_NAME>  (1501) 
ETAM   MSM

>  <FRAG_ATOM_NUM>  (1501) 
fragi: 11  fragj: 9

>  <atom.prop.CHAIN_ID>  (1501) 
A A A A A A A A A A A Z Z Z Z Z Z Z Z Z

>  <atom.prop.IS_HEAVY_ATOM>  (1501) 
1 0 0 0 1 0 0 1 0 0 0 1 0 0 0 1 1 0 0 0

>  <DIFUSE_FUNC_ATOM>  (1501) 
n/a

>  <FINAL_SINGLE_POINT_ENERGY>  (1501) 
0

>  <NONCOV_INTER_ENERGY_QM>  (1501) 
0

>  <FF_Energy>  (1501) 
-4.63

>  <QM_Energy>  (1501) 
-9.96

>  <source>  (1501) 
ETAM_MSM

>  <Index>  (1501) 
9566

$$$$
ETAM-pdb5brp-C-LYS-195:MSM-pdb5brp-C-MET-81
     RDKit          3D

 20 18  0  0  0  0  0  0  0  0999 V2000
    1.2319    0.8626   -0.0000 C   0  0  0  0  0  0  0  0  0  0  0  0
    2.0212    0.2936   -0.1468 H   0  0  0  0  0  0  0  0  0  0  0  0
    1.2795    1.3533    0.8519 H   0  0  0  0  0  0  0  0  0  0  0  0
    1.1433    1.5737   -0.8214 H   0  0  0  0  0  0  0  0  0  0  0  0
    0.0000    0.0000    0.0000 C   0  0  0  0  0  0  0  0  0  0  0  0
   -0.0025   -0.5780   -0.8162 H   0  0  0  0  0  0  0  0  0  0  0  0
   -0.0029   -0.5780    0.8166 H   0  0  0  0  0  0  0  0  0  0  0  0
   -1.2319    0.8418    0.0000 N   0  0  0  0  0  4  0  0  0  0  0  0
   -2.0251    0.2652   -0.1908 H   0  0  0  0  0  0  0  0  0  0  0  0
   -1.3368    1.2729    0.8946 H   0  0  0  0  0  0  0  0  0  0  0  0
   -1.1508    1.5451   -0.7043 H   0  0  0  0  0  0  0  0  0  0  0  0
   -1.5290   -0.4573    3.7630 C   0  0  0  0  0  0  0  0  0  0  0  0
   -2.2462   -0.6656    3.0560 H   0  0  0  0  0  0  0  0  0  0  0  0
   -1.5256    0.5678    3.8478 H   0  0  0  0  0  0  0  0  0  0  0  0
   -1.8522   -0.8801    4.7143 H   0  0  0  0  0  0  0  0  0  0  0  0
    0.1002   -1.0544    3.2094 S   0  0  0  0  0  0  0  0  0  0  0  0
   -0.2580   -2.7948    2.9386 C   0  0  0  0  0  0  0  0  0  0  0  0
    0.5834   -3.2723    2.6859 H   0  0  0  0  0  0  0  0  0  0  0  0
   -0.6286   -3.1926    3.7776 H   0  0  0  0  0  0  0  0  0  0  0  0
   -0.9275   -2.8855    2.2018 H   0  0  0  0  0  0  0  0  0  0  0  0
  1  5  1  0
  5  8  1  0
  1  2  1  0
  1  3  1  0
  1  4  1  0
  5  6  1  0
  5  7  1  0
  8  9  1  0
  8 10  1  0
  8 11  1  0
 12 16  1  0
 16 17  1  0
 12 13  1  0
 12 14  1  0
 12 15  1  0
 17 18  1  0
 17 19  1  0
 17 20  1  0
M  CHG  1   8   1
M  END
>  <PDB_ID>  (1502) 
pdb5brp

>  <RESIDUE_NAME>  (1502) 
LYS   MET

>  <FRAG_NAME>  (1502) 
ETAM   MSM

>  <FRAG_ATOM_NUM>  (1502) 
fragi: 11  fragj: 9

>  <atom.prop.CHAIN_ID>  (1502) 
A A A A A A A A A A A Z Z Z Z Z Z Z Z Z

>  <atom.prop.IS_HEAVY_ATOM>  (1502) 
1 0 0 0 1 0 0 1 0 0 0 1 0 0 0 1 1 0 0 0

>  <DIFUSE_FUNC_ATOM>  (1502) 
n/a

>  <FINAL_SINGLE_POINT_ENERGY>  (1502) 
0

>  <NONCOV_INTER_ENERGY_QM>  (1502) 
0

>  <FF_Energy>  (1502) 
0.36

>  <QM_Energy>  (1502) 
-6.75

>  <source>  (1502) 
ETAM_MSM

>  <Index>  (1502) 
9577

$$$$
ETAM-pdb6byq-A-LYS-4:MSM-pdb6byq-A-MET-1
     RDKit          3D

 20 18  0  0  0  0  0  0  0  0999 V2000
    1.2323    0.8725   -0.0000 C   0  0  0  0  0  0  0  0  0  0  0  0
    1.2149    1.4523    0.8171 H   0  0  0  0  0  0  0  0  0  0  0  0
    1.2143    1.4534   -0.8157 H   0  0  0  0  0  0  0  0  0  0  0  0
    2.1580    0.2969    0.0008 H   0  0  0  0  0  0  0  0  0  0  0  0
    0.0000    0.0000    0.0000 C   0  0  0  0  0  0  0  0  0  0  0  0
    0.0073   -0.5785   -0.8160 H   0  0  0  0  0  0  0  0  0  0  0  0
    0.0067   -0.5796    0.8162 H   0  0  0  0  0  0  0  0  0  0  0  0
   -1.2323    0.8278   -0.0000 N   0  0  0  0  0  4  0  0  0  0  0  0
   -1.7297    0.6858    0.8565 H   0  0  0  0  0  0  0  0  0  0  0  0
   -0.9855    1.7932   -0.0858 H   0  0  0  0  0  0  0  0  0  0  0  0
   -1.8129    0.5619   -0.7705 H   0  0  0  0  0  0  0  0  0  0  0  0
    0.6182   -0.4227    4.1837 C   0  0  0  0  0  0  0  0  0  0  0  0
   -0.0130   -0.4008    4.9868 H   0  0  0  0  0  0  0  0  0  0  0  0
    1.5132   -0.7659    4.5365 H   0  0  0  0  0  0  0  0  0  0  0  0
    0.2320   -1.1342    3.4539 H   0  0  0  0  0  0  0  0  0  0  0  0
    0.8029    1.2244    3.4745 S   0  0  0  0  0  0  0  0  0  0  0  0
   -0.8119    1.4467    2.7231 C   0  0  0  0  0  0  0  0  0  0  0  0
   -1.3564    0.6167    2.8498 H   0  0  0  0  0  0  0  0  0  0  0  0
   -1.2770    2.2199    3.1549 H   0  0  0  0  0  0  0  0  0  0  0  0
   -0.7037    1.6273    1.7451 H   0  0  0  0  0  0  0  0  0  0  0  0
  1  5  1  0
  5  8  1  0
  1  2  1  0
  1  3  1  0
  1  4  1  0
  5  6  1  0
  5  7  1  0
  8  9  1  0
  8 10  1  0
  8 11  1  0
 12 16  1  0
 16 17  1  0
 12 13  1  0
 12 14  1  0
 12 15  1  0
 17 18  1  0
 17 19  1  0
 17 20  1  0
M  CHG  1   8   1
M  END
>  <PDB_ID>  (1503) 
pdb6byq

>  <RESIDUE_NAME>  (1503) 
LYS   MET

>  <FRAG_NAME>  (1503) 
ETAM   MSM

>  <FRAG_ATOM_NUM>  (1503) 
fragi: 11  fragj: 9

>  <atom.prop.CHAIN_ID>  (1503) 
A A A A A A A A A A A Z Z Z Z Z Z Z Z Z

>  <atom.prop.IS_HEAVY_ATOM>  (1503) 
1 0 0 0 1 0 0 1 0 0 0 1 0 0 0 1 1 0 0 0

>  <DIFUSE_FUNC_ATOM>  (1503) 
n/a

>  <FINAL_SINGLE_POINT_ENERGY>  (1503) 
0

>  <NONCOV_INTER_ENERGY_QM>  (1503) 
0

>  <FF_Energy>  (1503) 
24.92

>  <QM_Energy>  (1503) 
4.96

>  <source>  (1503) 
ETAM_MSM

>  <Index>  (1503) 
9579

$$$$
ETAM-pdb6byw-A-LYS-183:MSM-pdb6byw-A-MET-633
     RDKit          3D

 20 18  0  0  0  0  0  0  0  0999 V2000
    1.2285    0.8819   -0.0000 C   0  0  0  0  0  0  0  0  0  0  0  0
    1.1028    1.5699    0.6717 H   0  0  0  0  0  0  0  0  0  0  0  0
    1.3061    1.2857   -0.8777 H   0  0  0  0  0  0  0  0  0  0  0  0
    2.1454    0.3351    0.2198 H   0  0  0  0  0  0  0  0  0  0  0  0
    0.0000    0.0000    0.0000 C   0  0  0  0  0  0  0  0  0  0  0  0
   -0.0037   -0.5530   -0.7965 H   0  0  0  0  0  0  0  0  0  0  0  0
   -0.0040   -0.5516    0.7984 H   0  0  0  0  0  0  0  0  0  0  0  0
   -1.2285    0.8423   -0.0000 N   0  0  0  0  0  4  0  0  0  0  0  0
   -1.9515    0.3235    0.0005 H   0  0  0  0  0  0  0  0  0  0  0  0
   -1.2425    1.3594    0.7238 H   0  0  0  0  0  0  0  0  0  0  0  0
   -1.2423    1.3578   -0.7248 H   0  0  0  0  0  0  0  0  0  0  0  0
   -2.7031   -3.1844   -1.0414 C   0  0  0  0  0  0  0  0  0  0  0  0
   -2.6794   -4.1540   -1.0150 H   0  0  0  0  0  0  0  0  0  0  0  0
   -1.9269   -2.8463   -1.5143 H   0  0  0  0  0  0  0  0  0  0  0  0
   -3.6048   -2.8650   -1.5639 H   0  0  0  0  0  0  0  0  0  0  0  0
   -2.6298   -2.5803    0.6561 S   0  0  0  0  0  0  0  0  0  0  0  0
   -1.0155   -3.1899    1.1332 C   0  0  0  0  0  0  0  0  0  0  0  0
   -0.8390   -2.9303    2.0513 H   0  0  0  0  0  0  0  0  0  0  0  0
   -1.0080   -4.1565    1.0559 H   0  0  0  0  0  0  0  0  0  0  0  0
   -0.3469   -2.8057    0.5458 H   0  0  0  0  0  0  0  0  0  0  0  0
  1  5  1  0
  5  8  1  0
  1  2  1  0
  1  3  1  0
  1  4  1  0
  5  6  1  0
  5  7  1  0
  8  9  1  0
  8 10  1  0
  8 11  1  0
 12 16  1  0
 16 17  1  0
 12 13  1  0
 12 14  1  0
 12 15  1  0
 17 18  1  0
 17 19  1  0
 17 20  1  0
M  CHG  1   8   1
M  END
>  <PDB_ID>  (1504) 
pdb6byw

>  <RESIDUE_NAME>  (1504) 
LYS   MET

>  <FRAG_NAME>  (1504) 
ETAM   MSM

>  <FRAG_ATOM_NUM>  (1504) 
fragi: 11  fragj: 9

>  <atom.prop.CHAIN_ID>  (1504) 
A A A A A A A A A A A Z Z Z Z Z Z Z Z Z

>  <atom.prop.IS_HEAVY_ATOM>  (1504) 
1 0 0 0 1 0 0 1 0 0 0 1 0 0 0 1 1 0 0 0

>  <DIFUSE_FUNC_ATOM>  (1504) 
n/a

>  <FINAL_SINGLE_POINT_ENERGY>  (1504) 
0

>  <NONCOV_INTER_ENERGY_QM>  (1504) 
0

>  <FF_Energy>  (1504) 
-3.76

>  <QM_Energy>  (1504) 
-10.67

>  <source>  (1504) 
ETAM_MSM

>  <Index>  (1504) 
9589

$$$$
ETAM-pdb6byw-C-LYS-183:MSM-pdb6byw-C-MET-633
     RDKit          3D

 20 18  0  0  0  0  0  0  0  0999 V2000
    1.2262    0.8791    0.0000 C   0  0  0  0  0  0  0  0  0  0  0  0
    1.1061    1.5623    0.6778 H   0  0  0  0  0  0  0  0  0  0  0  0
    1.3022    1.2887   -0.8753 H   0  0  0  0  0  0  0  0  0  0  0  0
    2.1399    0.3245    0.2134 H   0  0  0  0  0  0  0  0  0  0  0  0
    0.0000    0.0000    0.0000 C   0  0  0  0  0  0  0  0  0  0  0  0
   -0.0035   -0.5524   -0.7969 H   0  0  0  0  0  0  0  0  0  0  0  0
   -0.0042   -0.5530    0.7975 H   0  0  0  0  0  0  0  0  0  0  0  0
   -1.2262    0.8356   -0.0000 N   0  0  0  0  0  4  0  0  0  0  0  0
   -1.9484    0.3159   -0.0006 H   0  0  0  0  0  0  0  0  0  0  0  0
   -1.2420    1.3524    0.7250 H   0  0  0  0  0  0  0  0  0  0  0  0
   -1.2417    1.3523   -0.7247 H   0  0  0  0  0  0  0  0  0  0  0  0
   -2.6564   -3.0119   -1.2994 C   0  0  0  0  0  0  0  0  0  0  0  0
   -2.6250   -3.9805   -1.3259 H   0  0  0  0  0  0  0  0  0  0  0  0
   -1.8715   -2.6417   -1.7331 H   0  0  0  0  0  0  0  0  0  0  0  0
   -3.5477   -2.6706   -1.8258 H   0  0  0  0  0  0  0  0  0  0  0  0
   -2.6305   -2.5014    0.4269 S   0  0  0  0  0  0  0  0  0  0  0  0
   -1.0260   -3.1317    0.9049 C   0  0  0  0  0  0  0  0  0  0  0  0
   -0.8722   -2.9239    1.8399 H   0  0  0  0  0  0  0  0  0  0  0  0
   -1.0135   -4.0924    0.7729 H   0  0  0  0  0  0  0  0  0  0  0  0
   -0.3461   -2.7122    0.3552 H   0  0  0  0  0  0  0  0  0  0  0  0
  1  5  1  0
  5  8  1  0
  1  2  1  0
  1  3  1  0
  1  4  1  0
  5  6  1  0
  5  7  1  0
  8  9  1  0
  8 10  1  0
  8 11  1  0
 12 16  1  0
 16 17  1  0
 12 13  1  0
 12 14  1  0
 12 15  1  0
 17 18  1  0
 17 19  1  0
 17 20  1  0
M  CHG  1   8   1
M  END
>  <PDB_ID>  (1505) 
pdb6byw

>  <RESIDUE_NAME>  (1505) 
LYS   MET

>  <FRAG_NAME>  (1505) 
ETAM   MSM

>  <FRAG_ATOM_NUM>  (1505) 
fragi: 11  fragj: 9

>  <atom.prop.CHAIN_ID>  (1505) 
A A A A A A A A A A A Z Z Z Z Z Z Z Z Z

>  <atom.prop.IS_HEAVY_ATOM>  (1505) 
1 0 0 0 1 0 0 1 0 0 0 1 0 0 0 1 1 0 0 0

>  <DIFUSE_FUNC_ATOM>  (1505) 
n/a

>  <FINAL_SINGLE_POINT_ENERGY>  (1505) 
0

>  <NONCOV_INTER_ENERGY_QM>  (1505) 
0

>  <FF_Energy>  (1505) 
-3.56

>  <QM_Energy>  (1505) 
-11.17

>  <source>  (1505) 
ETAM_MSM

>  <Index>  (1505) 
9591

$$$$
ETAM-pdb6byw-D-LYS-183:MSM-pdb6byw-D-MET-633
     RDKit          3D

 20 18  0  0  0  0  0  0  0  0999 V2000
    1.2333    0.8745    0.0000 C   0  0  0  0  0  0  0  0  0  0  0  0
    1.1114    1.5661    0.6686 H   0  0  0  0  0  0  0  0  0  0  0  0
    1.3179    1.2744   -0.8796 H   0  0  0  0  0  0  0  0  0  0  0  0
    2.1423    0.3172    0.2265 H   0  0  0  0  0  0  0  0  0  0  0  0
    0.0000    0.0000    0.0000 C   0  0  0  0  0  0  0  0  0  0  0  0
   -0.0032   -0.5534   -0.7968 H   0  0  0  0  0  0  0  0  0  0  0  0
   -0.0034   -0.5528    0.7962 H   0  0  0  0  0  0  0  0  0  0  0  0
   -1.2333    0.8342    0.0000 N   0  0  0  0  0  4  0  0  0  0  0  0
   -1.9531    0.3108   -0.0005 H   0  0  0  0  0  0  0  0  0  0  0  0
   -1.2507    1.3508    0.7240 H   0  0  0  0  0  0  0  0  0  0  0  0
   -1.2502    1.3508   -0.7250 H   0  0  0  0  0  0  0  0  0  0  0  0
   -2.4156   -3.4147   -1.3211 C   0  0  0  0  0  0  0  0  0  0  0  0
   -2.3665   -4.3834   -1.3316 H   0  0  0  0  0  0  0  0  0  0  0  0
   -1.6248   -3.0405   -1.7391 H   0  0  0  0  0  0  0  0  0  0  0  0
   -3.2935   -3.1013   -1.8861 H   0  0  0  0  0  0  0  0  0  0  0  0
   -2.4350   -2.8827    0.3983 S   0  0  0  0  0  0  0  0  0  0  0  0
   -0.8279   -3.4790    0.9157 C   0  0  0  0  0  0  0  0  0  0  0  0
   -0.6954   -3.2572    1.8509 H   0  0  0  0  0  0  0  0  0  0  0  0
   -0.7958   -4.4407    0.7962 H   0  0  0  0  0  0  0  0  0  0  0  0
   -0.1446   -3.0533    0.3740 H   0  0  0  0  0  0  0  0  0  0  0  0
  1  5  1  0
  5  8  1  0
  1  2  1  0
  1  3  1  0
  1  4  1  0
  5  6  1  0
  5  7  1  0
  8  9  1  0
  8 10  1  0
  8 11  1  0
 12 16  1  0
 16 17  1  0
 12 13  1  0
 12 14  1  0
 12 15  1  0
 17 18  1  0
 17 19  1  0
 17 20  1  0
M  CHG  1   8   1
M  END
>  <PDB_ID>  (1506) 
pdb6byw

>  <RESIDUE_NAME>  (1506) 
LYS   MET

>  <FRAG_NAME>  (1506) 
ETAM   MSM

>  <FRAG_ATOM_NUM>  (1506) 
fragi: 11  fragj: 9

>  <atom.prop.CHAIN_ID>  (1506) 
A A A A A A A A A A A Z Z Z Z Z Z Z Z Z

>  <atom.prop.IS_HEAVY_ATOM>  (1506) 
1 0 0 0 1 0 0 1 0 0 0 1 0 0 0 1 1 0 0 0

>  <DIFUSE_FUNC_ATOM>  (1506) 
n/a

>  <FINAL_SINGLE_POINT_ENERGY>  (1506) 
0

>  <NONCOV_INTER_ENERGY_QM>  (1506) 
0

>  <FF_Energy>  (1506) 
-3.91

>  <QM_Energy>  (1506) 
-9.97

>  <source>  (1506) 
ETAM_MSM

>  <Index>  (1506) 
9592

$$$$
ETAM-pdb6c0e-B-LYS-61:MSM-pdb6c0e-B-MET-422
     RDKit          3D

 20 18  0  0  0  0  0  0  0  0999 V2000
    1.2325    0.8734    0.0000 C   0  0  0  0  0  0  0  0  0  0  0  0
    1.2150    1.4530    0.8167 H   0  0  0  0  0  0  0  0  0  0  0  0
    1.2147    1.4522   -0.8168 H   0  0  0  0  0  0  0  0  0  0  0  0
    2.1572    0.2963    0.0009 H   0  0  0  0  0  0  0  0  0  0  0  0
    0.0000    0.0000    0.0000 C   0  0  0  0  0  0  0  0  0  0  0  0
    0.0071   -0.5792   -0.8154 H   0  0  0  0  0  0  0  0  0  0  0  0
    0.0068   -0.5784    0.8173 H   0  0  0  0  0  0  0  0  0  0  0  0
   -1.2325    0.8286    0.0000 N   0  0  0  0  0  4  0  0  0  0  0  0
   -1.0271    1.7314   -0.3787 H   0  0  0  0  0  0  0  0  0  0  0  0
   -1.9326    0.3837   -0.5589 H   0  0  0  0  0  0  0  0  0  0  0  0
   -1.5670    0.9279    0.9375 H   0  0  0  0  0  0  0  0  0  0  0  0
   -1.0725    3.6729    2.0169 C   0  0  0  0  0  0  0  0  0  0  0  0
   -0.8872    4.5637    2.4826 H   0  0  0  0  0  0  0  0  0  0  0  0
   -2.0904    3.5717    1.9972 H   0  0  0  0  0  0  0  0  0  0  0  0
   -0.7016    3.7250    0.9933 H   0  0  0  0  0  0  0  0  0  0  0  0
   -0.3190    2.3134    2.9296 S   0  0  0  0  0  0  0  0  0  0  0  0
   -0.9858    2.6574    4.5652 C   0  0  0  0  0  0  0  0  0  0  0  0
   -1.2001    3.6310    4.6380 H   0  0  0  0  0  0  0  0  0  0  0  0
   -1.8174    2.1199    4.7044 H   0  0  0  0  0  0  0  0  0  0  0  0
   -0.3083    2.4110    5.2580 H   0  0  0  0  0  0  0  0  0  0  0  0
  1  5  1  0
  5  8  1  0
  1  2  1  0
  1  3  1  0
  1  4  1  0
  5  6  1  0
  5  7  1  0
  8  9  1  0
  8 10  1  0
  8 11  1  0
 12 16  1  0
 16 17  1  0
 12 13  1  0
 12 14  1  0
 12 15  1  0
 17 18  1  0
 17 19  1  0
 17 20  1  0
M  CHG  1   8   1
M  END
>  <PDB_ID>  (1507) 
pdb6c0e

>  <RESIDUE_NAME>  (1507) 
LYS   MET

>  <FRAG_NAME>  (1507) 
ETAM   MSM

>  <FRAG_ATOM_NUM>  (1507) 
fragi: 11  fragj: 9

>  <atom.prop.CHAIN_ID>  (1507) 
A A A A A A A A A A A Z Z Z Z Z Z Z Z Z

>  <atom.prop.IS_HEAVY_ATOM>  (1507) 
1 0 0 0 1 0 0 1 0 0 0 1 0 0 0 1 1 0 0 0

>  <DIFUSE_FUNC_ATOM>  (1507) 
n/a

>  <FINAL_SINGLE_POINT_ENERGY>  (1507) 
0

>  <NONCOV_INTER_ENERGY_QM>  (1507) 
0

>  <FF_Energy>  (1507) 
-4.21

>  <QM_Energy>  (1507) 
-12.77

>  <source>  (1507) 
ETAM_MSM

>  <Index>  (1507) 
9597

$$$$
ETAM-pdb5c54-A-LYS-272:MSM-pdb5c54-A-MET-286
     RDKit          3D

 20 18  0  0  0  0  0  0  0  0999 V2000
    1.2420    0.8716   -0.0000 C   0  0  0  0  0  0  0  0  0  0  0  0
    1.2227    1.4518    0.8066 H   0  0  0  0  0  0  0  0  0  0  0  0
    1.2424    1.4243   -0.8263 H   0  0  0  0  0  0  0  0  0  0  0  0
    2.1475    0.2652    0.0215 H   0  0  0  0  0  0  0  0  0  0  0  0
    0.0000    0.0000    0.0000 C   0  0  0  0  0  0  0  0  0  0  0  0
    0.0019   -0.5751   -0.8158 H   0  0  0  0  0  0  0  0  0  0  0  0
    0.0011   -0.5751    0.8162 H   0  0  0  0  0  0  0  0  0  0  0  0
   -1.2420    0.8405   -0.0000 N   0  0  0  0  0  4  0  0  0  0  0  0
   -2.0396    0.2431   -0.0454 H   0  0  0  0  0  0  0  0  0  0  0  0
   -1.2698    1.3810    0.8377 H   0  0  0  0  0  0  0  0  0  0  0  0
   -1.2261    1.4456   -0.7933 H   0  0  0  0  0  0  0  0  0  0  0  0
    0.3040    2.7249    4.3974 C   0  0  0  0  0  0  0  0  0  0  0  0
    0.7696    3.5429    3.9951 H   0  0  0  0  0  0  0  0  0  0  0  0
    0.6889    2.6211    5.3400 H   0  0  0  0  0  0  0  0  0  0  0  0
   -0.7619    2.9378    4.4782 H   0  0  0  0  0  0  0  0  0  0  0  0
    0.6239    1.2582    3.4112 S   0  0  0  0  0  0  0  0  0  0  0  0
   -0.2220    0.0060    4.3587 C   0  0  0  0  0  0  0  0  0  0  0  0
   -0.8234   -0.5259    3.7582 H   0  0  0  0  0  0  0  0  0  0  0  0
    0.4466   -0.6086    4.7819 H   0  0  0  0  0  0  0  0  0  0  0  0
   -0.7730    0.4376    5.0766 H   0  0  0  0  0  0  0  0  0  0  0  0
  1  5  1  0
  5  8  1  0
  1  2  1  0
  1  3  1  0
  1  4  1  0
  5  6  1  0
  5  7  1  0
  8  9  1  0
  8 10  1  0
  8 11  1  0
 12 16  1  0
 16 17  1  0
 12 13  1  0
 12 14  1  0
 12 15  1  0
 17 18  1  0
 17 19  1  0
 17 20  1  0
M  CHG  1   8   1
M  END
>  <PDB_ID>  (1508) 
pdb5c54

>  <RESIDUE_NAME>  (1508) 
LYS   MET

>  <FRAG_NAME>  (1508) 
ETAM   MSM

>  <FRAG_ATOM_NUM>  (1508) 
fragi: 11  fragj: 9

>  <atom.prop.CHAIN_ID>  (1508) 
A A A A A A A A A A A Z Z Z Z Z Z Z Z Z

>  <atom.prop.IS_HEAVY_ATOM>  (1508) 
1 0 0 0 1 0 0 1 0 0 0 1 0 0 0 1 1 0 0 0

>  <DIFUSE_FUNC_ATOM>  (1508) 
n/a

>  <FINAL_SINGLE_POINT_ENERGY>  (1508) 
0

>  <NONCOV_INTER_ENERGY_QM>  (1508) 
0

>  <FF_Energy>  (1508) 
-3.76

>  <QM_Energy>  (1508) 
-11.05

>  <source>  (1508) 
ETAM_MSM

>  <Index>  (1508) 
9599

$$$$
ETAM-pdb6c07-A-LYS-114:MSM-pdb6c07-A-MET-71
     RDKit          3D

 20 18  0  0  0  0  0  0  0  0999 V2000
    1.2566    0.8896   -0.0000 C   0  0  0  0  0  0  0  0  0  0  0  0
    0.9900    1.7946    0.2261 H   0  0  0  0  0  0  0  0  0  0  0  0
    1.6444    0.8708   -0.8889 H   0  0  0  0  0  0  0  0  0  0  0  0
    1.9919    0.5370    0.7232 H   0  0  0  0  0  0  0  0  0  0  0  0
    0.0000    0.0000    0.0000 C   0  0  0  0  0  0  0  0  0  0  0  0
    0.0022   -0.5565   -0.7944 H   0  0  0  0  0  0  0  0  0  0  0  0
    0.0021   -0.5569    0.7947 H   0  0  0  0  0  0  0  0  0  0  0  0
   -1.2566    0.8099   -0.0000 N   0  0  0  0  0  4  0  0  0  0  0  0
   -1.2702    1.3511   -0.7063 H   0  0  0  0  0  0  0  0  0  0  0  0
   -1.9655    0.2731   -0.0336 H   0  0  0  0  0  0  0  0  0  0  0  0
   -1.3017    1.3001    0.7414 H   0  0  0  0  0  0  0  0  0  0  0  0
    0.7725    4.8592    2.2758 C   0  0  0  0  0  0  0  0  0  0  0  0
    1.6673    5.1976    2.1153 H   0  0  0  0  0  0  0  0  0  0  0  0
    0.8170    4.0308    2.7781 H   0  0  0  0  0  0  0  0  0  0  0  0
    0.2266    5.5935    2.8681 H   0  0  0  0  0  0  0  0  0  0  0  0
    0.0495    4.4822    0.6872 S   0  0  0  0  0  0  0  0  0  0  0  0
    0.1012    6.0134   -0.1519 C   0  0  0  0  0  0  0  0  0  0  0  0
   -0.2807    5.9013   -1.0370 H   0  0  0  0  0  0  0  0  0  0  0  0
   -0.4123    6.6660    0.3497 H   0  0  0  0  0  0  0  0  0  0  0  0
    1.0240    6.3025   -0.2241 H   0  0  0  0  0  0  0  0  0  0  0  0
  1  5  1  0
  5  8  1  0
  1  2  1  0
  1  3  1  0
  1  4  1  0
  5  6  1  0
  5  7  1  0
  8  9  1  0
  8 10  1  0
  8 11  1  0
 12 16  1  0
 16 17  1  0
 12 13  1  0
 12 14  1  0
 12 15  1  0
 17 18  1  0
 17 19  1  0
 17 20  1  0
M  CHG  1   8   1
M  END
>  <PDB_ID>  (1509) 
pdb6c07

>  <RESIDUE_NAME>  (1509) 
LYS   MET

>  <FRAG_NAME>  (1509) 
ETAM   MSM

>  <FRAG_ATOM_NUM>  (1509) 
fragi: 11  fragj: 9

>  <atom.prop.CHAIN_ID>  (1509) 
A A A A A A A A A A A Z Z Z Z Z Z Z Z Z

>  <atom.prop.IS_HEAVY_ATOM>  (1509) 
1 0 0 0 1 0 0 1 0 0 0 1 0 0 0 1 1 0 0 0

>  <DIFUSE_FUNC_ATOM>  (1509) 
n/a

>  <FINAL_SINGLE_POINT_ENERGY>  (1509) 
0

>  <NONCOV_INTER_ENERGY_QM>  (1509) 
0

>  <FF_Energy>  (1509) 
-4.61

>  <QM_Energy>  (1509) 
-10.59

>  <source>  (1509) 
ETAM_MSM

>  <Index>  (1509) 
9602

$$$$
ETAM-pdb5c54-B-LYS-272:MSM-pdb5c54-B-MET-286
     RDKit          3D

 20 18  0  0  0  0  0  0  0  0999 V2000
    1.2308    0.8774    0.0000 C   0  0  0  0  0  0  0  0  0  0  0  0
    1.1449    1.5436    0.7392 H   0  0  0  0  0  0  0  0  0  0  0  0
    1.2804    1.3537   -0.8769 H   0  0  0  0  0  0  0  0  0  0  0  0
    2.1422    0.2974    0.1452 H   0  0  0  0  0  0  0  0  0  0  0  0
    0.0000    0.0000    0.0000 C   0  0  0  0  0  0  0  0  0  0  0  0
    0.0095   -0.5783   -0.8161 H   0  0  0  0  0  0  0  0  0  0  0  0
    0.0099   -0.5783    0.8163 H   0  0  0  0  0  0  0  0  0  0  0  0
   -1.2308    0.8251   -0.0000 N   0  0  0  0  0  4  0  0  0  0  0  0
   -1.1780    1.5055   -0.7325 H   0  0  0  0  0  0  0  0  0  0  0  0
   -2.0277    0.2382   -0.1491 H   0  0  0  0  0  0  0  0  0  0  0  0
   -1.3216    1.2913    0.8808 H   0  0  0  0  0  0  0  0  0  0  0  0
    0.0862    2.8585    4.2504 C   0  0  0  0  0  0  0  0  0  0  0  0
    0.5590    3.6279    3.7780 H   0  0  0  0  0  0  0  0  0  0  0  0
    0.4697    2.8192    5.1932 H   0  0  0  0  0  0  0  0  0  0  0  0
   -0.9774    3.0885    4.3138 H   0  0  0  0  0  0  0  0  0  0  0  0
    0.3605    1.3084    3.3830 S   0  0  0  0  0  0  0  0  0  0  0  0
   -0.4597    0.1436    4.4795 C   0  0  0  0  0  0  0  0  0  0  0  0
   -1.4495    0.2673    4.4154 H   0  0  0  0  0  0  0  0  0  0  0  0
   -0.2221   -0.7899    4.2115 H   0  0  0  0  0  0  0  0  0  0  0  0
   -0.1627    0.3072    5.4200 H   0  0  0  0  0  0  0  0  0  0  0  0
  1  5  1  0
  5  8  1  0
  1  2  1  0
  1  3  1  0
  1  4  1  0
  5  6  1  0
  5  7  1  0
  8  9  1  0
  8 10  1  0
  8 11  1  0
 12 16  1  0
 16 17  1  0
 12 13  1  0
 12 14  1  0
 12 15  1  0
 17 18  1  0
 17 19  1  0
 17 20  1  0
M  CHG  1   8   1
M  END
>  <PDB_ID>  (1510) 
pdb5c54

>  <RESIDUE_NAME>  (1510) 
LYS   MET

>  <FRAG_NAME>  (1510) 
ETAM   MSM

>  <FRAG_ATOM_NUM>  (1510) 
fragi: 11  fragj: 9

>  <atom.prop.CHAIN_ID>  (1510) 
A A A A A A A A A A A Z Z Z Z Z Z Z Z Z

>  <atom.prop.IS_HEAVY_ATOM>  (1510) 
1 0 0 0 1 0 0 1 0 0 0 1 0 0 0 1 1 0 0 0

>  <DIFUSE_FUNC_ATOM>  (1510) 
n/a

>  <FINAL_SINGLE_POINT_ENERGY>  (1510) 
0

>  <NONCOV_INTER_ENERGY_QM>  (1510) 
0

>  <FF_Energy>  (1510) 
-4.51

>  <QM_Energy>  (1510) 
-12.85

>  <source>  (1510) 
ETAM_MSM

>  <Index>  (1510) 
9609

$$$$
ETAM-pdb5cba-F-LYS-39:MSM-pdb5cba-F-MET-64
     RDKit          3D

 20 18  0  0  0  0  0  0  0  0999 V2000
    1.2347    0.8571   -0.0000 C   0  0  0  0  0  0  0  0  0  0  0  0
    1.1920    1.4857    0.7697 H   0  0  0  0  0  0  0  0  0  0  0  0
    1.2796    1.3607   -0.8566 H   0  0  0  0  0  0  0  0  0  0  0  0
    2.1315    0.2449    0.0957 H   0  0  0  0  0  0  0  0  0  0  0  0
    0.0000    0.0000    0.0000 C   0  0  0  0  0  0  0  0  0  0  0  0
    0.0034   -0.5866   -0.8163 H   0  0  0  0  0  0  0  0  0  0  0  0
    0.0034   -0.5870    0.8159 H   0  0  0  0  0  0  0  0  0  0  0  0
   -1.2347    0.8207   -0.0000 N   0  0  0  0  0  4  0  0  0  0  0  0
   -1.8802    0.4531   -0.6698 H   0  0  0  0  0  0  0  0  0  0  0  0
   -1.6506    0.7993    0.9102 H   0  0  0  0  0  0  0  0  0  0  0  0
   -1.0082    1.7658   -0.2398 H   0  0  0  0  0  0  0  0  0  0  0  0
   -2.2429    1.6451   -4.6719 C   0  0  0  0  0  0  0  0  0  0  0  0
   -2.3524    0.6575   -4.9090 H   0  0  0  0  0  0  0  0  0  0  0  0
   -1.8832    2.1010   -5.5130 H   0  0  0  0  0  0  0  0  0  0  0  0
   -3.2195    2.0633   -4.4280 H   0  0  0  0  0  0  0  0  0  0  0  0
   -1.0737    1.8383   -3.3027 S   0  0  0  0  0  0  0  0  0  0  0  0
   -0.8675    3.6398   -3.2555 C   0  0  0  0  0  0  0  0  0  0  0  0
    0.1065    3.8546   -3.2356 H   0  0  0  0  0  0  0  0  0  0  0  0
   -1.2870    4.0360   -4.0692 H   0  0  0  0  0  0  0  0  0  0  0  0
   -1.3117    3.9959   -2.4362 H   0  0  0  0  0  0  0  0  0  0  0  0
  1  5  1  0
  5  8  1  0
  1  2  1  0
  1  3  1  0
  1  4  1  0
  5  6  1  0
  5  7  1  0
  8  9  1  0
  8 10  1  0
  8 11  1  0
 12 16  1  0
 16 17  1  0
 12 13  1  0
 12 14  1  0
 12 15  1  0
 17 18  1  0
 17 19  1  0
 17 20  1  0
M  CHG  1   8   1
M  END
>  <PDB_ID>  (1511) 
pdb5cba

>  <RESIDUE_NAME>  (1511) 
LYS   MET

>  <FRAG_NAME>  (1511) 
ETAM   MSM

>  <FRAG_ATOM_NUM>  (1511) 
fragi: 11  fragj: 9

>  <atom.prop.CHAIN_ID>  (1511) 
A A A A A A A A A A A Z Z Z Z Z Z Z Z Z

>  <atom.prop.IS_HEAVY_ATOM>  (1511) 
1 0 0 0 1 0 0 1 0 0 0 1 0 0 0 1 1 0 0 0

>  <DIFUSE_FUNC_ATOM>  (1511) 
n/a

>  <FINAL_SINGLE_POINT_ENERGY>  (1511) 
0

>  <NONCOV_INTER_ENERGY_QM>  (1511) 
0

>  <FF_Energy>  (1511) 
-5.48

>  <QM_Energy>  (1511) 
-13.19

>  <source>  (1511) 
ETAM_MSM

>  <Index>  (1511) 
9611

$$$$
ETAM-pdb5c54-C-LYS-272:MSM-pdb5c54-C-MET-286
     RDKit          3D

 20 18  0  0  0  0  0  0  0  0999 V2000
    1.2481    0.8646   -0.0000 C   0  0  0  0  0  0  0  0  0  0  0  0
    1.2572    1.4088    0.8283 H   0  0  0  0  0  0  0  0  0  0  0  0
    1.2324    1.4439   -0.8037 H   0  0  0  0  0  0  0  0  0  0  0  0
    2.1427    0.2424   -0.0261 H   0  0  0  0  0  0  0  0  0  0  0  0
    0.0000    0.0000    0.0000 C   0  0  0  0  0  0  0  0  0  0  0  0
    0.0092   -0.5867   -0.8163 H   0  0  0  0  0  0  0  0  0  0  0  0
    0.0088   -0.5869    0.8165 H   0  0  0  0  0  0  0  0  0  0  0  0
   -1.2481    0.8143    0.0000 N   0  0  0  0  0  4  0  0  0  0  0  0
   -2.0057    0.2589   -0.3412 H   0  0  0  0  0  0  0  0  0  0  0  0
   -1.4464    1.1158    0.9318 H   0  0  0  0  0  0  0  0  0  0  0  0
   -1.1232    1.6101   -0.5907 H   0  0  0  0  0  0  0  0  0  0  0  0
    0.4415    2.6381    4.3748 C   0  0  0  0  0  0  0  0  0  0  0  0
    0.9306    3.4283    3.9563 H   0  0  0  0  0  0  0  0  0  0  0  0
    0.8468    2.5046    5.3004 H   0  0  0  0  0  0  0  0  0  0  0  0
   -0.6113    2.8977    4.4864 H   0  0  0  0  0  0  0  0  0  0  0  0
    0.6368    1.1611    3.3716 S   0  0  0  0  0  0  0  0  0  0  0  0
   -0.3279   -0.0340    4.2874 C   0  0  0  0  0  0  0  0  0  0  0  0
    0.1643   -0.9059    4.3262 H   0  0  0  0  0  0  0  0  0  0  0  0
   -0.4832    0.3002    5.2192 H   0  0  0  0  0  0  0  0  0  0  0  0
   -1.2112   -0.1721    3.8351 H   0  0  0  0  0  0  0  0  0  0  0  0
  1  5  1  0
  5  8  1  0
  1  2  1  0
  1  3  1  0
  1  4  1  0
  5  6  1  0
  5  7  1  0
  8  9  1  0
  8 10  1  0
  8 11  1  0
 12 16  1  0
 16 17  1  0
 12 13  1  0
 12 14  1  0
 12 15  1  0
 17 18  1  0
 17 19  1  0
 17 20  1  0
M  CHG  1   8   1
M  END
>  <PDB_ID>  (1512) 
pdb5c54

>  <RESIDUE_NAME>  (1512) 
LYS   MET

>  <FRAG_NAME>  (1512) 
ETAM   MSM

>  <FRAG_ATOM_NUM>  (1512) 
fragi: 11  fragj: 9

>  <atom.prop.CHAIN_ID>  (1512) 
A A A A A A A A A A A Z Z Z Z Z Z Z Z Z

>  <atom.prop.IS_HEAVY_ATOM>  (1512) 
1 0 0 0 1 0 0 1 0 0 0 1 0 0 0 1 1 0 0 0

>  <DIFUSE_FUNC_ATOM>  (1512) 
n/a

>  <FINAL_SINGLE_POINT_ENERGY>  (1512) 
0

>  <NONCOV_INTER_ENERGY_QM>  (1512) 
0

>  <FF_Energy>  (1512) 
-3.32

>  <QM_Energy>  (1512) 
-10.55

>  <source>  (1512) 
ETAM_MSM

>  <Index>  (1512) 
9620

$$$$
ETAM-pdb5cok-B-LYS-20:MSM-pdb5cok-B-MET-36
     RDKit          3D

 20 18  0  0  0  0  0  0  0  0999 V2000
    1.2492    0.8946   -0.0000 C   0  0  0  0  0  0  0  0  0  0  0  0
    2.0435    0.3078    0.0675 H   0  0  0  0  0  0  0  0  0  0  0  0
    1.1866    1.5039    0.7776 H   0  0  0  0  0  0  0  0  0  0  0  0
    1.2944    1.4732   -0.9227 H   0  0  0  0  0  0  0  0  0  0  0  0
    0.0000    0.0000    0.0000 C   0  0  0  0  0  0  0  0  0  0  0  0
    0.0173   -0.5729   -0.8164 H   0  0  0  0  0  0  0  0  0  0  0  0
    0.0173   -0.5734    0.8165 H   0  0  0  0  0  0  0  0  0  0  0  0
   -1.2492    0.8240    0.0000 N   0  0  0  0  0  4  0  0  0  0  0  0
   -1.4806    1.0678    0.9401 H   0  0  0  0  0  0  0  0  0  0  0  0
   -1.0954    1.6522   -0.5362 H   0  0  0  0  0  0  0  0  0  0  0  0
   -1.9914    0.2932   -0.4048 H   0  0  0  0  0  0  0  0  0  0  0  0
   -1.0298   -1.3847    4.6892 C   0  0  0  0  0  0  0  0  0  0  0  0
   -1.3020   -0.8673    5.5334 H   0  0  0  0  0  0  0  0  0  0  0  0
   -1.2108   -2.3722    4.9062 H   0  0  0  0  0  0  0  0  0  0  0  0
   -1.6981   -1.0870    3.8812 H   0  0  0  0  0  0  0  0  0  0  0  0
    0.7117   -1.1189    4.3040 S   0  0  0  0  0  0  0  0  0  0  0  0
    0.5548    0.2870    3.2788 C   0  0  0  0  0  0  0  0  0  0  0  0
    0.4431    0.0153    2.3135 H   0  0  0  0  0  0  0  0  0  0  0  0
   -0.2488    0.8366    3.5448 H   0  0  0  0  0  0  0  0  0  0  0  0
    1.3729    0.8735    3.3478 H   0  0  0  0  0  0  0  0  0  0  0  0
  1  5  1  0
  5  8  1  0
  1  2  1  0
  1  3  1  0
  1  4  1  0
  5  6  1  0
  5  7  1  0
  8  9  1  0
  8 10  1  0
  8 11  1  0
 12 16  1  0
 16 17  1  0
 12 13  1  0
 12 14  1  0
 12 15  1  0
 17 18  1  0
 17 19  1  0
 17 20  1  0
M  CHG  1   8   1
M  END
>  <PDB_ID>  (1513) 
pdb5cok

>  <RESIDUE_NAME>  (1513) 
LYS   MET

>  <FRAG_NAME>  (1513) 
ETAM   MSM

>  <FRAG_ATOM_NUM>  (1513) 
fragi: 11  fragj: 9

>  <atom.prop.CHAIN_ID>  (1513) 
A A A A A A A A A A A Z Z Z Z Z Z Z Z Z

>  <atom.prop.IS_HEAVY_ATOM>  (1513) 
1 0 0 0 1 0 0 1 0 0 0 1 0 0 0 1 1 0 0 0

>  <DIFUSE_FUNC_ATOM>  (1513) 
n/a

>  <FINAL_SINGLE_POINT_ENERGY>  (1513) 
0

>  <NONCOV_INTER_ENERGY_QM>  (1513) 
0

>  <FF_Energy>  (1513) 
12.16

>  <QM_Energy>  (1513) 
2.3

>  <source>  (1513) 
ETAM_MSM

>  <Index>  (1513) 
9663

$$$$
ETAM-pdb5cpc-A-LYS-102:MSM-pdb5cpc-A-MET-113
     RDKit          3D

 20 18  0  0  0  0  0  0  0  0999 V2000
    1.2551    0.8797   -0.0000 C   0  0  0  0  0  0  0  0  0  0  0  0
    1.0483    1.7241    0.4685 H   0  0  0  0  0  0  0  0  0  0  0  0
    1.5269    1.0408   -0.9359 H   0  0  0  0  0  0  0  0  0  0  0  0
    2.0706    0.3794    0.5223 H   0  0  0  0  0  0  0  0  0  0  0  0
    0.0000    0.0000    0.0000 C   0  0  0  0  0  0  0  0  0  0  0  0
    0.0116   -0.5790   -0.8164 H   0  0  0  0  0  0  0  0  0  0  0  0
    0.0122   -0.5790    0.8160 H   0  0  0  0  0  0  0  0  0  0  0  0
   -1.2551    0.8215   -0.0000 N   0  0  0  0  0  4  0  0  0  0  0  0
   -1.3199    1.3182   -0.8628 H   0  0  0  0  0  0  0  0  0  0  0  0
   -2.0411    0.2150    0.1024 H   0  0  0  0  0  0  0  0  0  0  0  0
   -1.2223    1.4657    0.7612 H   0  0  0  0  0  0  0  0  0  0  0  0
    1.4109    1.7389    3.9087 C   0  0  0  0  0  0  0  0  0  0  0  0
    1.9958    1.1692    4.5147 H   0  0  0  0  0  0  0  0  0  0  0  0
    1.2064    1.1786    3.0849 H   0  0  0  0  0  0  0  0  0  0  0  0
    0.4842    1.9935    4.4230 H   0  0  0  0  0  0  0  0  0  0  0  0
    2.2669    3.2416    3.4463 S   0  0  0  0  0  0  0  0  0  0  0  0
    1.3805    3.7297    1.9602 C   0  0  0  0  0  0  0  0  0  0  0  0
    1.1818    2.9184    1.4104 H   0  0  0  0  0  0  0  0  0  0  0  0
    0.5237    4.1774    2.2162 H   0  0  0  0  0  0  0  0  0  0  0  0
    1.9438    4.3634    1.4300 H   0  0  0  0  0  0  0  0  0  0  0  0
  1  5  1  0
  5  8  1  0
  1  2  1  0
  1  3  1  0
  1  4  1  0
  5  6  1  0
  5  7  1  0
  8  9  1  0
  8 10  1  0
  8 11  1  0
 12 16  1  0
 16 17  1  0
 12 13  1  0
 12 14  1  0
 12 15  1  0
 17 18  1  0
 17 19  1  0
 17 20  1  0
M  CHG  1   8   1
M  END
>  <PDB_ID>  (1514) 
pdb5cpc

>  <RESIDUE_NAME>  (1514) 
LYS   MET

>  <FRAG_NAME>  (1514) 
ETAM   MSM

>  <FRAG_ATOM_NUM>  (1514) 
fragi: 11  fragj: 9

>  <atom.prop.CHAIN_ID>  (1514) 
A A A A A A A A A A A Z Z Z Z Z Z Z Z Z

>  <atom.prop.IS_HEAVY_ATOM>  (1514) 
1 0 0 0 1 0 0 1 0 0 0 1 0 0 0 1 1 0 0 0

>  <DIFUSE_FUNC_ATOM>  (1514) 
n/a

>  <FINAL_SINGLE_POINT_ENERGY>  (1514) 
0

>  <NONCOV_INTER_ENERGY_QM>  (1514) 
0

>  <FF_Energy>  (1514) 
22.33

>  <QM_Energy>  (1514) 
4.76

>  <source>  (1514) 
ETAM_MSM

>  <Index>  (1514) 
9673

$$$$
ETAM-pdb6cpy-A-LYS-275:MSM-pdb6cpy-A-MET-304
     RDKit          3D

 20 18  0  0  0  0  0  0  0  0999 V2000
    1.2481    0.8690   -0.0000 C   0  0  0  0  0  0  0  0  0  0  0  0
    1.2597    1.4027    0.8282 H   0  0  0  0  0  0  0  0  0  0  0  0
    1.2347    1.4368   -0.8048 H   0  0  0  0  0  0  0  0  0  0  0  0
    2.1259    0.2233   -0.0262 H   0  0  0  0  0  0  0  0  0  0  0  0
    0.0000    0.0000    0.0000 C   0  0  0  0  0  0  0  0  0  0  0  0
    0.0151   -0.5892   -0.8161 H   0  0  0  0  0  0  0  0  0  0  0  0
    0.0158   -0.5895    0.8168 H   0  0  0  0  0  0  0  0  0  0  0  0
   -1.2481    0.8016   -0.0000 N   0  0  0  0  0  4  0  0  0  0  0  0
   -1.1681    1.5449   -0.6657 H   0  0  0  0  0  0  0  0  0  0  0  0
   -2.0212    0.2155   -0.2459 H   0  0  0  0  0  0  0  0  0  0  0  0
   -1.3983    1.1860    0.9120 H   0  0  0  0  0  0  0  0  0  0  0  0
    0.5665    1.1297   -5.2963 C   0  0  0  0  0  0  0  0  0  0  0  0
    1.3148    0.7171   -5.8758 H   0  0  0  0  0  0  0  0  0  0  0  0
    0.5676    2.1315   -5.5492 H   0  0  0  0  0  0  0  0  0  0  0  0
   -0.3839    0.7005   -5.6133 H   0  0  0  0  0  0  0  0  0  0  0  0
    0.9209    0.9122   -3.5471 S   0  0  0  0  0  0  0  0  0  0  0  0
    2.1778    2.1775   -3.3193 C   0  0  0  0  0  0  0  0  0  0  0  0
    1.7427    3.0309   -3.0310 H   0  0  0  0  0  0  0  0  0  0  0  0
    2.8260    1.8801   -2.6182 H   0  0  0  0  0  0  0  0  0  0  0  0
    2.6618    2.3242   -4.1820 H   0  0  0  0  0  0  0  0  0  0  0  0
  1  5  1  0
  5  8  1  0
  1  2  1  0
  1  3  1  0
  1  4  1  0
  5  6  1  0
  5  7  1  0
  8  9  1  0
  8 10  1  0
  8 11  1  0
 12 16  1  0
 16 17  1  0
 12 13  1  0
 12 14  1  0
 12 15  1  0
 17 18  1  0
 17 19  1  0
 17 20  1  0
M  CHG  1   8   1
M  END
>  <PDB_ID>  (1515) 
pdb6cpy

>  <RESIDUE_NAME>  (1515) 
LYS   MET

>  <FRAG_NAME>  (1515) 
ETAM   MSM

>  <FRAG_ATOM_NUM>  (1515) 
fragi: 11  fragj: 9

>  <atom.prop.CHAIN_ID>  (1515) 
A A A A A A A A A A A Z Z Z Z Z Z Z Z Z

>  <atom.prop.IS_HEAVY_ATOM>  (1515) 
1 0 0 0 1 0 0 1 0 0 0 1 0 0 0 1 1 0 0 0

>  <DIFUSE_FUNC_ATOM>  (1515) 
n/a

>  <FINAL_SINGLE_POINT_ENERGY>  (1515) 
0

>  <NONCOV_INTER_ENERGY_QM>  (1515) 
0

>  <FF_Energy>  (1515) 
-4.08

>  <QM_Energy>  (1515) 
-9.94

>  <source>  (1515) 
ETAM_MSM

>  <Index>  (1515) 
9680

$$$$
ETAM-pdb6cqn-E-LYS-156:MSM-pdb6cqn-D-MET-177
     RDKit          3D

 20 18  0  0  0  0  0  0  0  0999 V2000
    1.2461    0.8516   -0.0000 C   0  0  0  0  0  0  0  0  0  0  0  0
    2.0360    0.2658    0.1786 H   0  0  0  0  0  0  0  0  0  0  0  0
    1.1666    1.5371    0.7234 H   0  0  0  0  0  0  0  0  0  0  0  0
    1.3966    1.3613   -0.9517 H   0  0  0  0  0  0  0  0  0  0  0  0
    0.0000    0.0000    0.0000 C   0  0  0  0  0  0  0  0  0  0  0  0
    0.0020   -0.5892   -0.8165 H   0  0  0  0  0  0  0  0  0  0  0  0
    0.0017   -0.5896    0.8165 H   0  0  0  0  0  0  0  0  0  0  0  0
   -1.2461    0.8189   -0.0000 N   0  0  0  0  0  4  0  0  0  0  0  0
   -1.7669    0.6276    0.8306 H   0  0  0  0  0  0  0  0  0  0  0  0
   -1.0041    1.7884   -0.0286 H   0  0  0  0  0  0  0  0  0  0  0  0
   -1.7944    0.5852   -0.8017 H   0  0  0  0  0  0  0  0  0  0  0  0
   -5.8774    2.5119   -0.2373 C   0  0  0  0  0  0  0  0  0  0  0  0
   -6.2814    1.9313   -0.9766 H   0  0  0  0  0  0  0  0  0  0  0  0
   -6.4007    3.3905   -0.2531 H   0  0  0  0  0  0  0  0  0  0  0  0
   -6.0361    2.0223    0.7235 H   0  0  0  0  0  0  0  0  0  0  0  0
   -4.1243    2.8145   -0.5596 S   0  0  0  0  0  0  0  0  0  0  0  0
   -4.0920    2.6823   -2.3707 C   0  0  0  0  0  0  0  0  0  0  0  0
   -4.9066    3.1211   -2.7416 H   0  0  0  0  0  0  0  0  0  0  0  0
   -3.2734    3.1371   -2.7140 H   0  0  0  0  0  0  0  0  0  0  0  0
   -4.0780    1.7178   -2.6244 H   0  0  0  0  0  0  0  0  0  0  0  0
  1  5  1  0
  5  8  1  0
  1  2  1  0
  1  3  1  0
  1  4  1  0
  5  6  1  0
  5  7  1  0
  8  9  1  0
  8 10  1  0
  8 11  1  0
 12 16  1  0
 16 17  1  0
 12 13  1  0
 12 14  1  0
 12 15  1  0
 17 18  1  0
 17 19  1  0
 17 20  1  0
M  CHG  1   8   1
M  END
>  <PDB_ID>  (1516) 
pdb6cqn

>  <RESIDUE_NAME>  (1516) 
LYS   MET

>  <FRAG_NAME>  (1516) 
ETAM   MSM

>  <FRAG_ATOM_NUM>  (1516) 
fragi: 11  fragj: 9

>  <atom.prop.CHAIN_ID>  (1516) 
A A A A A A A A A A A Z Z Z Z Z Z Z Z Z

>  <atom.prop.IS_HEAVY_ATOM>  (1516) 
1 0 0 0 1 0 0 1 0 0 0 1 0 0 0 1 1 0 0 0

>  <DIFUSE_FUNC_ATOM>  (1516) 
n/a

>  <FINAL_SINGLE_POINT_ENERGY>  (1516) 
0

>  <NONCOV_INTER_ENERGY_QM>  (1516) 
0

>  <FF_Energy>  (1516) 
-4.48

>  <QM_Energy>  (1516) 
-10.9

>  <source>  (1516) 
ETAM_MSM

>  <Index>  (1516) 
9686

$$$$
ETAM-pdb6ct6-A-LYS-49:MSM-pdb6ct6-A-MET-45
     RDKit          3D

 20 18  0  0  0  0  0  0  0  0999 V2000
    1.2610    0.8580   -0.0000 C   0  0  0  0  0  0  0  0  0  0  0  0
    1.2772    1.3738    0.8212 H   0  0  0  0  0  0  0  0  0  0  0  0
    1.2270    1.4496   -0.7680 H   0  0  0  0  0  0  0  0  0  0  0  0
    2.1608    0.2455   -0.0576 H   0  0  0  0  0  0  0  0  0  0  0  0
    0.0000    0.0000    0.0000 C   0  0  0  0  0  0  0  0  0  0  0  0
   -0.0010   -0.5566   -0.7940 H   0  0  0  0  0  0  0  0  0  0  0  0
   -0.0003   -0.5572    0.7942 H   0  0  0  0  0  0  0  0  0  0  0  0
   -1.2610    0.7995   -0.0000 N   0  0  0  0  0  4  0  0  0  0  0  0
   -1.9652    0.2558    0.0000 H   0  0  0  0  0  0  0  0  0  0  0  0
   -1.2940    1.3153    0.7251 H   0  0  0  0  0  0  0  0  0  0  0  0
   -1.2940    1.3158   -0.7234 H   0  0  0  0  0  0  0  0  0  0  0  0
    0.9424   -1.5257    4.2861 C   0  0  0  0  0  0  0  0  0  0  0  0
    1.4816   -1.9600    3.6077 H   0  0  0  0  0  0  0  0  0  0  0  0
    0.0936   -1.9865    4.3825 H   0  0  0  0  0  0  0  0  0  0  0  0
    1.4739   -1.5578    5.2372 H   0  0  0  0  0  0  0  0  0  0  0  0
    0.6059    0.1550    3.7412 S   0  0  0  0  0  0  0  0  0  0  0  0
   -0.7046    0.6006    4.8743 C   0  0  0  0  0  0  0  0  0  0  0  0
   -0.9877    1.5096    4.6864 H   0  0  0  0  0  0  0  0  0  0  0  0
   -1.4476   -0.0104    4.7533 H   0  0  0  0  0  0  0  0  0  0  0  0
   -0.3698    0.5396    5.7831 H   0  0  0  0  0  0  0  0  0  0  0  0
  1  5  1  0
  5  8  1  0
  1  2  1  0
  1  3  1  0
  1  4  1  0
  5  6  1  0
  5  7  1  0
  8  9  1  0
  8 10  1  0
  8 11  1  0
 12 16  1  0
 16 17  1  0
 12 13  1  0
 12 14  1  0
 12 15  1  0
 17 18  1  0
 17 19  1  0
 17 20  1  0
M  CHG  1   8   1
M  END
>  <PDB_ID>  (1517) 
pdb6ct6

>  <RESIDUE_NAME>  (1517) 
LYS   MET

>  <FRAG_NAME>  (1517) 
ETAM   MSM

>  <FRAG_ATOM_NUM>  (1517) 
fragi: 11  fragj: 9

>  <atom.prop.CHAIN_ID>  (1517) 
A A A A A A A A A A A Z Z Z Z Z Z Z Z Z

>  <atom.prop.IS_HEAVY_ATOM>  (1517) 
1 0 0 0 1 0 0 1 0 0 0 1 0 0 0 1 1 0 0 0

>  <DIFUSE_FUNC_ATOM>  (1517) 
n/a

>  <FINAL_SINGLE_POINT_ENERGY>  (1517) 
0

>  <NONCOV_INTER_ENERGY_QM>  (1517) 
0

>  <FF_Energy>  (1517) 
-4.15

>  <QM_Energy>  (1517) 
-9.52

>  <source>  (1517) 
ETAM_MSM

>  <Index>  (1517) 
9688

$$$$
ETAM-pdb6cpy-B-LYS-275:MSM-pdb6cpy-B-MET-304
     RDKit          3D

 20 18  0  0  0  0  0  0  0  0999 V2000
    1.2603    0.8606    0.0000 C   0  0  0  0  0  0  0  0  0  0  0  0
    1.1879    1.5229    0.7215 H   0  0  0  0  0  0  0  0  0  0  0  0
    1.3554    1.2764   -0.8840 H   0  0  0  0  0  0  0  0  0  0  0  0
    2.1182    0.2155    0.1897 H   0  0  0  0  0  0  0  0  0  0  0  0
    0.0000    0.0000    0.0000 C   0  0  0  0  0  0  0  0  0  0  0  0
    0.0222   -0.6004   -0.8162 H   0  0  0  0  0  0  0  0  0  0  0  0
    0.0224   -0.6006    0.8160 H   0  0  0  0  0  0  0  0  0  0  0  0
   -1.2603    0.7763    0.0000 N   0  0  0  0  0  4  0  0  0  0  0  0
   -1.5596    0.9307    0.9428 H   0  0  0  0  0  0  0  0  0  0  0  0
   -1.1116    1.6585   -0.4495 H   0  0  0  0  0  0  0  0  0  0  0  0
   -1.9681    0.2677   -0.4927 H   0  0  0  0  0  0  0  0  0  0  0  0
    1.0767    0.0278   -5.2866 C   0  0  0  0  0  0  0  0  0  0  0  0
    1.8793   -0.4322   -5.7288 H   0  0  0  0  0  0  0  0  0  0  0  0
    1.0210    0.9563   -5.7173 H   0  0  0  0  0  0  0  0  0  0  0  0
    0.1743   -0.5286   -5.5398 H   0  0  0  0  0  0  0  0  0  0  0  0
    1.3273    0.1684   -3.5031 S   0  0  0  0  0  0  0  0  0  0  0  0
    2.6244    1.3939   -3.4543 C   0  0  0  0  0  0  0  0  0  0  0  0
    2.5567    1.9914   -4.2562 H   0  0  0  0  0  0  0  0  0  0  0  0
    2.5369    1.9471   -2.6231 H   0  0  0  0  0  0  0  0  0  0  0  0
    3.5186    0.9410   -3.4553 H   0  0  0  0  0  0  0  0  0  0  0  0
  1  5  1  0
  5  8  1  0
  1  2  1  0
  1  3  1  0
  1  4  1  0
  5  6  1  0
  5  7  1  0
  8  9  1  0
  8 10  1  0
  8 11  1  0
 12 16  1  0
 16 17  1  0
 12 13  1  0
 12 14  1  0
 12 15  1  0
 17 18  1  0
 17 19  1  0
 17 20  1  0
M  CHG  1   8   1
M  END
>  <PDB_ID>  (1518) 
pdb6cpy

>  <RESIDUE_NAME>  (1518) 
LYS   MET

>  <FRAG_NAME>  (1518) 
ETAM   MSM

>  <FRAG_ATOM_NUM>  (1518) 
fragi: 11  fragj: 9

>  <atom.prop.CHAIN_ID>  (1518) 
A A A A A A A A A A A Z Z Z Z Z Z Z Z Z

>  <atom.prop.IS_HEAVY_ATOM>  (1518) 
1 0 0 0 1 0 0 1 0 0 0 1 0 0 0 1 1 0 0 0

>  <DIFUSE_FUNC_ATOM>  (1518) 
n/a

>  <FINAL_SINGLE_POINT_ENERGY>  (1518) 
0

>  <NONCOV_INTER_ENERGY_QM>  (1518) 
0

>  <FF_Energy>  (1518) 
-3.68

>  <QM_Energy>  (1518) 
-8.7

>  <source>  (1518) 
ETAM_MSM

>  <Index>  (1518) 
9691

$$$$
ETAM-pdb5crv-A-LYS-244:MSM-pdb5crv-A-MET-9
     RDKit          3D

 20 18  0  0  0  0  0  0  0  0999 V2000
    1.2472    0.8662   -0.0000 C   0  0  0  0  0  0  0  0  0  0  0  0
    1.3015    1.3459    0.8674 H   0  0  0  0  0  0  0  0  0  0  0  0
    1.1875    1.5104   -0.7536 H   0  0  0  0  0  0  0  0  0  0  0  0
    2.1444    0.2598   -0.1237 H   0  0  0  0  0  0  0  0  0  0  0  0
    0.0000    0.0000    0.0000 C   0  0  0  0  0  0  0  0  0  0  0  0
    0.0104   -0.5860   -0.8164 H   0  0  0  0  0  0  0  0  0  0  0  0
    0.0096   -0.5862    0.8161 H   0  0  0  0  0  0  0  0  0  0  0  0
   -1.2472    0.8125    0.0000 N   0  0  0  0  0  4  0  0  0  0  0  0
   -1.3761    1.2222   -0.9027 H   0  0  0  0  0  0  0  0  0  0  0  0
   -2.0261    0.2237    0.2142 H   0  0  0  0  0  0  0  0  0  0  0  0
   -1.1731    1.5336    0.6875 H   0  0  0  0  0  0  0  0  0  0  0  0
   -5.9274    1.6176    0.1372 C   0  0  0  0  0  0  0  0  0  0  0  0
   -5.9348    0.7014   -0.3235 H   0  0  0  0  0  0  0  0  0  0  0  0
   -6.7383    2.1202   -0.2400 H   0  0  0  0  0  0  0  0  0  0  0  0
   -6.0804    1.4675    1.2059 H   0  0  0  0  0  0  0  0  0  0  0  0
   -4.3987    2.5042   -0.2307 S   0  0  0  0  0  0  0  0  0  0  0  0
   -4.5893    2.7811   -1.9931 C   0  0  0  0  0  0  0  0  0  0  0  0
   -4.9925    3.6839   -2.1476 H   0  0  0  0  0  0  0  0  0  0  0  0
   -3.6939    2.7352   -2.4374 H   0  0  0  0  0  0  0  0  0  0  0  0
   -5.1882    2.0789   -2.3796 H   0  0  0  0  0  0  0  0  0  0  0  0
  1  5  1  0
  5  8  1  0
  1  2  1  0
  1  3  1  0
  1  4  1  0
  5  6  1  0
  5  7  1  0
  8  9  1  0
  8 10  1  0
  8 11  1  0
 12 16  1  0
 16 17  1  0
 12 13  1  0
 12 14  1  0
 12 15  1  0
 17 18  1  0
 17 19  1  0
 17 20  1  0
M  CHG  1   8   1
M  END
>  <PDB_ID>  (1519) 
pdb5crv

>  <RESIDUE_NAME>  (1519) 
LYS   MET

>  <FRAG_NAME>  (1519) 
ETAM   MSM

>  <FRAG_ATOM_NUM>  (1519) 
fragi: 11  fragj: 9

>  <atom.prop.CHAIN_ID>  (1519) 
A A A A A A A A A A A Z Z Z Z Z Z Z Z Z

>  <atom.prop.IS_HEAVY_ATOM>  (1519) 
1 0 0 0 1 0 0 1 0 0 0 1 0 0 0 1 1 0 0 0

>  <DIFUSE_FUNC_ATOM>  (1519) 
n/a

>  <FINAL_SINGLE_POINT_ENERGY>  (1519) 
0

>  <NONCOV_INTER_ENERGY_QM>  (1519) 
0

>  <FF_Energy>  (1519) 
-4.43

>  <QM_Energy>  (1519) 
-11.29

>  <source>  (1519) 
ETAM_MSM

>  <Index>  (1519) 
9692

$$$$
ETAM-pdb5cxm-C-LYS-45:MSM-pdb5cxm-C-MET-41
     RDKit          3D

 20 18  0  0  0  0  0  0  0  0999 V2000
    1.2211    0.8866    0.0000 C   0  0  0  0  0  0  0  0  0  0  0  0
    2.0288    0.3219    0.1183 H   0  0  0  0  0  0  0  0  0  0  0  0
    1.1402    1.5449    0.7380 H   0  0  0  0  0  0  0  0  0  0  0  0
    1.3024    1.4236   -0.9451 H   0  0  0  0  0  0  0  0  0  0  0  0
    0.0000    0.0000    0.0000 C   0  0  0  0  0  0  0  0  0  0  0  0
    0.0074   -0.5696   -0.8166 H   0  0  0  0  0  0  0  0  0  0  0  0
    0.0067   -0.5702    0.8164 H   0  0  0  0  0  0  0  0  0  0  0  0
   -1.2211    0.8423    0.0000 N   0  0  0  0  0  4  0  0  0  0  0  0
   -1.8838    0.4699   -0.6510 H   0  0  0  0  0  0  0  0  0  0  0  0
   -1.6223    0.8481    0.9166 H   0  0  0  0  0  0  0  0  0  0  0  0
   -0.9820    1.7766   -0.2646 H   0  0  0  0  0  0  0  0  0  0  0  0
   -4.5494   -0.7893   -1.8249 C   0  0  0  0  0  0  0  0  0  0  0  0
   -5.3932   -0.4828   -2.3171 H   0  0  0  0  0  0  0  0  0  0  0  0
   -4.4964   -1.8022   -1.9693 H   0  0  0  0  0  0  0  0  0  0  0  0
   -3.6854   -0.3269   -2.3023 H   0  0  0  0  0  0  0  0  0  0  0  0
   -4.6784   -0.4068   -0.0430 S   0  0  0  0  0  0  0  0  0  0  0  0
   -3.1655   -1.0929    0.6002 C   0  0  0  0  0  0  0  0  0  0  0  0
   -2.9066   -0.6156    1.4434 H   0  0  0  0  0  0  0  0  0  0  0  0
   -3.2910   -2.0674    0.8007 H   0  0  0  0  0  0  0  0  0  0  0  0
   -2.4308   -0.9891   -0.0740 H   0  0  0  0  0  0  0  0  0  0  0  0
  1  5  1  0
  5  8  1  0
  1  2  1  0
  1  3  1  0
  1  4  1  0
  5  6  1  0
  5  7  1  0
  8  9  1  0
  8 10  1  0
  8 11  1  0
 12 16  1  0
 16 17  1  0
 12 13  1  0
 12 14  1  0
 12 15  1  0
 17 18  1  0
 17 19  1  0
 17 20  1  0
M  CHG  1   8   1
M  END
>  <PDB_ID>  (1520) 
pdb5cxm

>  <RESIDUE_NAME>  (1520) 
LYS   MET

>  <FRAG_NAME>  (1520) 
ETAM   MSM

>  <FRAG_ATOM_NUM>  (1520) 
fragi: 11  fragj: 9

>  <atom.prop.CHAIN_ID>  (1520) 
A A A A A A A A A A A Z Z Z Z Z Z Z Z Z

>  <atom.prop.IS_HEAVY_ATOM>  (1520) 
1 0 0 0 1 0 0 1 0 0 0 1 0 0 0 1 1 0 0 0

>  <DIFUSE_FUNC_ATOM>  (1520) 
n/a

>  <FINAL_SINGLE_POINT_ENERGY>  (1520) 
0

>  <NONCOV_INTER_ENERGY_QM>  (1520) 
0

>  <FF_Energy>  (1520) 
9.54

>  <QM_Energy>  (1520) 
1.12

>  <source>  (1520) 
ETAM_MSM

>  <Index>  (1520) 
9697

$$$$
ETAM-pdb6cwo-A-LYS-83:MSM-pdb6cwo-A-MET-1
     RDKit          3D

 20 18  0  0  0  0  0  0  0  0999 V2000
    1.2405    0.8980   -0.0000 C   0  0  0  0  0  0  0  0  0  0  0  0
    1.2572    1.4080    0.8453 H   0  0  0  0  0  0  0  0  0  0  0  0
    1.1930    1.4958   -0.7845 H   0  0  0  0  0  0  0  0  0  0  0  0
    2.1412    0.2879   -0.0675 H   0  0  0  0  0  0  0  0  0  0  0  0
    0.0000    0.0000    0.0000 C   0  0  0  0  0  0  0  0  0  0  0  0
    0.0219   -0.5748   -0.8163 H   0  0  0  0  0  0  0  0  0  0  0  0
    0.0218   -0.5745    0.8169 H   0  0  0  0  0  0  0  0  0  0  0  0
   -1.2405    0.8156    0.0000 N   0  0  0  0  0  4  0  0  0  0  0  0
   -1.1515    1.5580   -0.6646 H   0  0  0  0  0  0  0  0  0  0  0  0
   -2.0191    0.2387   -0.2478 H   0  0  0  0  0  0  0  0  0  0  0  0
   -1.3866    1.1999    0.9120 H   0  0  0  0  0  0  0  0  0  0  0  0
   -4.5082    1.9926    0.9028 C   0  0  0  0  0  0  0  0  0  0  0  0
   -4.7726    2.1739    1.8752 H   0  0  0  0  0  0  0  0  0  0  0  0
   -3.8986    1.1696    0.9306 H   0  0  0  0  0  0  0  0  0  0  0  0
   -5.4082    1.7370    0.3436 H   0  0  0  0  0  0  0  0  0  0  0  0
   -3.6244    3.4179    0.2057 S   0  0  0  0  0  0  0  0  0  0  0  0
   -4.1592    4.7414    1.2910 C   0  0  0  0  0  0  0  0  0  0  0  0
   -4.5783    5.4710    0.7487 H   0  0  0  0  0  0  0  0  0  0  0  0
   -4.8291    4.3877    1.9450 H   0  0  0  0  0  0  0  0  0  0  0  0
   -3.3704    5.1067    1.7870 H   0  0  0  0  0  0  0  0  0  0  0  0
  1  5  1  0
  5  8  1  0
  1  2  1  0
  1  3  1  0
  1  4  1  0
  5  6  1  0
  5  7  1  0
  8  9  1  0
  8 10  1  0
  8 11  1  0
 12 16  1  0
 16 17  1  0
 12 13  1  0
 12 14  1  0
 12 15  1  0
 17 18  1  0
 17 19  1  0
 17 20  1  0
M  CHG  1   8   1
M  END
>  <PDB_ID>  (1521) 
pdb6cwo

>  <RESIDUE_NAME>  (1521) 
LYS   MET

>  <FRAG_NAME>  (1521) 
ETAM   MSM

>  <FRAG_ATOM_NUM>  (1521) 
fragi: 11  fragj: 9

>  <atom.prop.CHAIN_ID>  (1521) 
A A A A A A A A A A A Z Z Z Z Z Z Z Z Z

>  <atom.prop.IS_HEAVY_ATOM>  (1521) 
1 0 0 0 1 0 0 1 0 0 0 1 0 0 0 1 1 0 0 0

>  <DIFUSE_FUNC_ATOM>  (1521) 
n/a

>  <FINAL_SINGLE_POINT_ENERGY>  (1521) 
0

>  <NONCOV_INTER_ENERGY_QM>  (1521) 
0

>  <FF_Energy>  (1521) 
-3.48

>  <QM_Energy>  (1521) 
-9.2

>  <source>  (1521) 
ETAM_MSM

>  <Index>  (1521) 
9701

$$$$
ETAM-pdb6ct6-B-LYS-49:MSM-pdb6ct6-B-MET-45
     RDKit          3D

 20 18  0  0  0  0  0  0  0  0999 V2000
    1.2524    0.8716   -0.0000 C   0  0  0  0  0  0  0  0  0  0  0  0
    1.2022    1.4764    0.7560 H   0  0  0  0  0  0  0  0  0  0  0  0
    1.2732    1.3730   -0.8303 H   0  0  0  0  0  0  0  0  0  0  0  0
    2.1586    0.2713    0.0798 H   0  0  0  0  0  0  0  0  0  0  0  0
    0.0000    0.0000    0.0000 C   0  0  0  0  0  0  0  0  0  0  0  0
   -0.0002   -0.5558   -0.7940 H   0  0  0  0  0  0  0  0  0  0  0  0
    0.0005   -0.5552    0.7958 H   0  0  0  0  0  0  0  0  0  0  0  0
   -1.2524    0.8073    0.0000 N   0  0  0  0  0  4  0  0  0  0  0  0
   -1.9611    0.2690    0.0006 H   0  0  0  0  0  0  0  0  0  0  0  0
   -1.2815    1.3244    0.7248 H   0  0  0  0  0  0  0  0  0  0  0  0
   -1.2822    1.3235   -0.7244 H   0  0  0  0  0  0  0  0  0  0  0  0
    0.4611   -0.7121    4.7866 C   0  0  0  0  0  0  0  0  0  0  0  0
    0.9595   -1.3673    4.2740 H   0  0  0  0  0  0  0  0  0  0  0  0
   -0.4300   -1.0476    4.9698 H   0  0  0  0  0  0  0  0  0  0  0  0
    0.9740   -0.5456    5.7339 H   0  0  0  0  0  0  0  0  0  0  0  0
    0.2919    0.7754    3.7675 S   0  0  0  0  0  0  0  0  0  0  0  0
   -1.0405    1.6109    4.6244 C   0  0  0  0  0  0  0  0  0  0  0  0
   -1.2340    2.4448    4.1682 H   0  0  0  0  0  0  0  0  0  0  0  0
   -1.8248    1.0408    4.6199 H   0  0  0  0  0  0  0  0  0  0  0  0
   -0.7649    1.7900    5.5375 H   0  0  0  0  0  0  0  0  0  0  0  0
  1  5  1  0
  5  8  1  0
  1  2  1  0
  1  3  1  0
  1  4  1  0
  5  6  1  0
  5  7  1  0
  8  9  1  0
  8 10  1  0
  8 11  1  0
 12 16  1  0
 16 17  1  0
 12 13  1  0
 12 14  1  0
 12 15  1  0
 17 18  1  0
 17 19  1  0
 17 20  1  0
M  CHG  1   8   1
M  END
>  <PDB_ID>  (1522) 
pdb6ct6

>  <RESIDUE_NAME>  (1522) 
LYS   MET

>  <FRAG_NAME>  (1522) 
ETAM   MSM

>  <FRAG_ATOM_NUM>  (1522) 
fragi: 11  fragj: 9

>  <atom.prop.CHAIN_ID>  (1522) 
A A A A A A A A A A A Z Z Z Z Z Z Z Z Z

>  <atom.prop.IS_HEAVY_ATOM>  (1522) 
1 0 0 0 1 0 0 1 0 0 0 1 0 0 0 1 1 0 0 0

>  <DIFUSE_FUNC_ATOM>  (1522) 
n/a

>  <FINAL_SINGLE_POINT_ENERGY>  (1522) 
0

>  <NONCOV_INTER_ENERGY_QM>  (1522) 
0

>  <FF_Energy>  (1522) 
-4.39

>  <QM_Energy>  (1522) 
-10.16

>  <source>  (1522) 
ETAM_MSM

>  <Index>  (1522) 
9702

$$$$
ETAM-pdb5cyz-A-LYS-343:MSM-pdb5cyz-A-MET-299
     RDKit          3D

 20 18  0  0  0  0  0  0  0  0999 V2000
    1.2449    0.8574    0.0000 C   0  0  0  0  0  0  0  0  0  0  0  0
    1.4690    1.0970    0.9395 H   0  0  0  0  0  0  0  0  0  0  0  0
    1.0686    1.6786   -0.5333 H   0  0  0  0  0  0  0  0  0  0  0  0
    2.0898    0.3270   -0.4391 H   0  0  0  0  0  0  0  0  0  0  0  0
    0.0000    0.0000    0.0000 C   0  0  0  0  0  0  0  0  0  0  0  0
    0.0052   -0.5878   -0.8167 H   0  0  0  0  0  0  0  0  0  0  0  0
    0.0050   -0.5882    0.8166 H   0  0  0  0  0  0  0  0  0  0  0  0
   -1.2449    0.8174   -0.0000 N   0  0  0  0  0  4  0  0  0  0  0  0
   -1.5181    1.0049   -0.9432 H   0  0  0  0  0  0  0  0  0  0  0  0
   -1.9716    0.3133    0.4656 H   0  0  0  0  0  0  0  0  0  0  0  0
   -1.0757    1.6792    0.4775 H   0  0  0  0  0  0  0  0  0  0  0  0
   -4.9166    2.4823    1.8955 C   0  0  0  0  0  0  0  0  0  0  0  0
   -4.8916    1.4801    2.0074 H   0  0  0  0  0  0  0  0  0  0  0  0
   -5.8121    2.7316    1.5038 H   0  0  0  0  0  0  0  0  0  0  0  0
   -4.7946    2.9626    2.8664 H   0  0  0  0  0  0  0  0  0  0  0  0
   -3.5818    3.0309    0.8215 S   0  0  0  0  0  0  0  0  0  0  0  0
   -2.2265    3.1552    1.9890 C   0  0  0  0  0  0  0  0  0  0  0  0
   -1.7354    4.0143    1.8421 H   0  0  0  0  0  0  0  0  0  0  0  0
   -2.5861    3.1338    2.9233 H   0  0  0  0  0  0  0  0  0  0  0  0
   -1.5988    2.3874    1.8568 H   0  0  0  0  0  0  0  0  0  0  0  0
  1  5  1  0
  5  8  1  0
  1  2  1  0
  1  3  1  0
  1  4  1  0
  5  6  1  0
  5  7  1  0
  8  9  1  0
  8 10  1  0
  8 11  1  0
 12 16  1  0
 16 17  1  0
 12 13  1  0
 12 14  1  0
 12 15  1  0
 17 18  1  0
 17 19  1  0
 17 20  1  0
M  CHG  1   8   1
M  END
>  <PDB_ID>  (1523) 
pdb5cyz

>  <RESIDUE_NAME>  (1523) 
LYS   MET

>  <FRAG_NAME>  (1523) 
ETAM   MSM

>  <FRAG_ATOM_NUM>  (1523) 
fragi: 11  fragj: 9

>  <atom.prop.CHAIN_ID>  (1523) 
A A A A A A A A A A A Z Z Z Z Z Z Z Z Z

>  <atom.prop.IS_HEAVY_ATOM>  (1523) 
1 0 0 0 1 0 0 1 0 0 0 1 0 0 0 1 1 0 0 0

>  <DIFUSE_FUNC_ATOM>  (1523) 
n/a

>  <FINAL_SINGLE_POINT_ENERGY>  (1523) 
0

>  <NONCOV_INTER_ENERGY_QM>  (1523) 
0

>  <FF_Energy>  (1523) 
-1.36

>  <QM_Energy>  (1523) 
-7.06

>  <source>  (1523) 
ETAM_MSM

>  <Index>  (1523) 
9712

$$$$
ETAM-pdb5czj-B-LYS-184:MSM-pdb5czj-B-MET-122
     RDKit          3D

 20 18  0  0  0  0  0  0  0  0999 V2000
    1.2424    0.8732   -0.0000 C   0  0  0  0  0  0  0  0  0  0  0  0
    1.3270    1.3075    0.8931 H   0  0  0  0  0  0  0  0  0  0  0  0
    1.1446    1.5651   -0.7098 H   0  0  0  0  0  0  0  0  0  0  0  0
    2.1450    0.2940   -0.1947 H   0  0  0  0  0  0  0  0  0  0  0  0
    0.0000    0.0000    0.0000 C   0  0  0  0  0  0  0  0  0  0  0  0
    0.0093   -0.5807   -0.8164 H   0  0  0  0  0  0  0  0  0  0  0  0
    0.0095   -0.5809    0.8164 H   0  0  0  0  0  0  0  0  0  0  0  0
   -1.2424    0.8219   -0.0000 N   0  0  0  0  0  4  0  0  0  0  0  0
   -1.4034    1.1782    0.9197 H   0  0  0  0  0  0  0  0  0  0  0  0
   -1.1368    1.5818   -0.6405 H   0  0  0  0  0  0  0  0  0  0  0  0
   -2.0157    0.2535   -0.2795 H   0  0  0  0  0  0  0  0  0  0  0  0
   -0.1708    5.2429   -0.6602 C   0  0  0  0  0  0  0  0  0  0  0  0
   -0.2283    5.4747   -1.6620 H   0  0  0  0  0  0  0  0  0  0  0  0
    0.8122    4.9776   -0.5071 H   0  0  0  0  0  0  0  0  0  0  0  0
   -0.3730    6.1488   -0.0886 H   0  0  0  0  0  0  0  0  0  0  0  0
   -1.2721    3.8750   -0.2566 S   0  0  0  0  0  0  0  0  0  0  0  0
   -2.8567    4.5717   -0.7133 C   0  0  0  0  0  0  0  0  0  0  0  0
   -3.1790    4.1466   -1.5610 H   0  0  0  0  0  0  0  0  0  0  0  0
   -3.5214    4.4025    0.0164 H   0  0  0  0  0  0  0  0  0  0  0  0
   -2.7623    5.5580   -0.8528 H   0  0  0  0  0  0  0  0  0  0  0  0
  1  5  1  0
  5  8  1  0
  1  2  1  0
  1  3  1  0
  1  4  1  0
  5  6  1  0
  5  7  1  0
  8  9  1  0
  8 10  1  0
  8 11  1  0
 12 16  1  0
 16 17  1  0
 12 13  1  0
 12 14  1  0
 12 15  1  0
 17 18  1  0
 17 19  1  0
 17 20  1  0
M  CHG  1   8   1
M  END
>  <PDB_ID>  (1524) 
pdb5czj

>  <RESIDUE_NAME>  (1524) 
LYS   MET

>  <FRAG_NAME>  (1524) 
ETAM   MSM

>  <FRAG_ATOM_NUM>  (1524) 
fragi: 11  fragj: 9

>  <atom.prop.CHAIN_ID>  (1524) 
A A A A A A A A A A A Z Z Z Z Z Z Z Z Z

>  <atom.prop.IS_HEAVY_ATOM>  (1524) 
1 0 0 0 1 0 0 1 0 0 0 1 0 0 0 1 1 0 0 0

>  <DIFUSE_FUNC_ATOM>  (1524) 
n/a

>  <FINAL_SINGLE_POINT_ENERGY>  (1524) 
0

>  <NONCOV_INTER_ENERGY_QM>  (1524) 
0

>  <FF_Energy>  (1524) 
-4.84

>  <QM_Energy>  (1524) 
-14.71

>  <source>  (1524) 
ETAM_MSM

>  <Index>  (1524) 
9715

$$$$
ETAM-pdb5d0i-B-GLU-292:MSM-pdb5d0i-B-MET-300
     RDKit          3D

 20 18  0  0  0  0  0  0  0  0999 V2000
    1.2270    0.9167    0.0000 C   0  0  0  0  0  0  0  0  0  0  0  0
    2.0297    0.3414   -0.0293 H   0  0  0  0  0  0  0  0  0  0  0  0
    1.1688    1.4952   -0.7988 H   0  0  0  0  0  0  0  0  0  0  0  0
    1.3194    1.5659    0.8707 H   0  0  0  0  0  0  0  0  0  0  0  0
    0.0000    0.0000    0.0000 C   0  0  0  0  0  0  0  0  0  0  0  0
    0.0665   -0.5237   -0.8619 H   0  0  0  0  0  0  0  0  0  0  0  0
    0.0443   -0.6907    0.8421 H   0  0  0  0  0  0  0  0  0  0  0  0
   -1.2270    0.7910   -0.0000 N   0  0  0  0  0  4  0  0  0  0  0  0
   -1.0189    1.7460    0.2202 H   0  0  0  0  0  0  0  0  0  0  0  0
   -1.6590    0.7520   -0.9034 H   0  0  0  0  0  0  0  0  0  0  0  0
   -1.8660    0.4311    0.6827 H   0  0  0  0  0  0  0  0  0  0  0  0
   -4.4150   -2.2986    2.7589 C   0  0  0  0  0  0  0  0  0  0  0  0
   -4.6764   -3.2707    2.9707 H   0  0  0  0  0  0  0  0  0  0  0  0
   -5.3052   -1.8204    2.5628 H   0  0  0  0  0  0  0  0  0  0  0  0
   -3.9817   -1.8593    3.6574 H   0  0  0  0  0  0  0  0  0  0  0  0
   -3.3231   -2.2300    1.3190 S   0  0  0  0  0  0  0  0  0  0  0  0
   -3.9869   -3.5581    0.3148 C   0  0  0  0  0  0  0  0  0  0  0  0
   -3.5079   -3.5859   -0.5638 H   0  0  0  0  0  0  0  0  0  0  0  0
   -3.8621   -4.4309    0.7882 H   0  0  0  0  0  0  0  0  0  0  0  0
   -4.9625   -3.4026    0.1564 H   0  0  0  0  0  0  0  0  0  0  0  0
  1  5  1  0
  5  8  1  0
  1  2  1  0
  1  3  1  0
  1  4  1  0
  5  6  1  0
  5  7  1  0
  8  9  1  0
  8 10  1  0
  8 11  1  0
 12 16  1  0
 16 17  1  0
 12 13  1  0
 12 14  1  0
 12 15  1  0
 17 18  1  0
 17 19  1  0
 17 20  1  0
M  CHG  1   8   1
M  END
>  <PDB_ID>  (1525) 
pdb5d0i

>  <RESIDUE_NAME>  (1525) 
GLU   MET

>  <FRAG_NAME>  (1525) 
ETAM   MSM

>  <FRAG_ATOM_NUM>  (1525) 
fragi: 11  fragj: 9

>  <atom.prop.CHAIN_ID>  (1525) 
A A A A A A A A A A A Z Z Z Z Z Z Z Z Z

>  <atom.prop.IS_HEAVY_ATOM>  (1525) 
1 0 0 0 1 0 0 1 0 0 0 1 0 0 0 1 1 0 0 0

>  <DIFUSE_FUNC_ATOM>  (1525) 
n/a

>  <FINAL_SINGLE_POINT_ENERGY>  (1525) 
0

>  <NONCOV_INTER_ENERGY_QM>  (1525) 
0

>  <FF_Energy>  (1525) 
-4.86

>  <QM_Energy>  (1525) 
-11.38

>  <source>  (1525) 
ETAM_MSM

>  <Index>  (1525) 
9722

$$$$
ETAM-pdb6d1p-A-LYS-117:MSM-pdb6d1p-A-MET-176
     RDKit          3D

 20 18  0  0  0  0  0  0  0  0999 V2000
    1.2200    0.9115   -0.0000 C   0  0  0  0  0  0  0  0  0  0  0  0
    1.1565    1.5321   -0.7803 H   0  0  0  0  0  0  0  0  0  0  0  0
    2.0409    0.3486   -0.0843 H   0  0  0  0  0  0  0  0  0  0  0  0
    1.3050    1.5098    0.9072 H   0  0  0  0  0  0  0  0  0  0  0  0
    0.0000    0.0000    0.0000 C   0  0  0  0  0  0  0  0  0  0  0  0
    0.0346   -0.5755   -0.8161 H   0  0  0  0  0  0  0  0  0  0  0  0
    0.0334   -0.5749    0.8164 H   0  0  0  0  0  0  0  0  0  0  0  0
   -1.2200    0.8001    0.0000 N   0  0  0  0  0  4  0  0  0  0  0  0
   -1.0258    1.7286    0.3318 H   0  0  0  0  0  0  0  0  0  0  0  0
   -1.5940    0.8605   -0.9300 H   0  0  0  0  0  0  0  0  0  0  0  0
   -1.9088    0.3806    0.5983 H   0  0  0  0  0  0  0  0  0  0  0  0
   -2.8458   -0.5265    4.1085 C   0  0  0  0  0  0  0  0  0  0  0  0
   -3.2998   -0.2864    4.9892 H   0  0  0  0  0  0  0  0  0  0  0  0
   -2.1776   -1.2659    4.3220 H   0  0  0  0  0  0  0  0  0  0  0  0
   -3.5956   -0.9157    3.4197 H   0  0  0  0  0  0  0  0  0  0  0  0
   -2.0063    0.9087    3.4140 S   0  0  0  0  0  0  0  0  0  0  0  0
   -3.2972    2.1477    3.4616 C   0  0  0  0  0  0  0  0  0  0  0  0
   -3.8683    2.0073    4.2725 H   0  0  0  0  0  0  0  0  0  0  0  0
   -2.8864    3.0602    3.4989 H   0  0  0  0  0  0  0  0  0  0  0  0
   -3.8650    2.0741    2.6404 H   0  0  0  0  0  0  0  0  0  0  0  0
  1  5  1  0
  5  8  1  0
  1  2  1  0
  1  3  1  0
  1  4  1  0
  5  6  1  0
  5  7  1  0
  8  9  1  0
  8 10  1  0
  8 11  1  0
 12 16  1  0
 16 17  1  0
 12 13  1  0
 12 14  1  0
 12 15  1  0
 17 18  1  0
 17 19  1  0
 17 20  1  0
M  CHG  1   8   1
M  END
>  <PDB_ID>  (1526) 
pdb6d1p

>  <RESIDUE_NAME>  (1526) 
LYS   MET

>  <FRAG_NAME>  (1526) 
ETAM   MSM

>  <FRAG_ATOM_NUM>  (1526) 
fragi: 11  fragj: 9

>  <atom.prop.CHAIN_ID>  (1526) 
A A A A A A A A A A A Z Z Z Z Z Z Z Z Z

>  <atom.prop.IS_HEAVY_ATOM>  (1526) 
1 0 0 0 1 0 0 1 0 0 0 1 0 0 0 1 1 0 0 0

>  <DIFUSE_FUNC_ATOM>  (1526) 
n/a

>  <FINAL_SINGLE_POINT_ENERGY>  (1526) 
0

>  <NONCOV_INTER_ENERGY_QM>  (1526) 
0

>  <FF_Energy>  (1526) 
-5.06

>  <QM_Energy>  (1526) 
-13.48

>  <source>  (1526) 
ETAM_MSM

>  <Index>  (1526) 
9728

$$$$
ETAM-pdb6d3f-A-LYS-440:MSM-pdb6d3f-A-MET-443
     RDKit          3D

 20 18  0  0  0  0  0  0  0  0999 V2000
    1.2755    0.8599   -0.0000 C   0  0  0  0  0  0  0  0  0  0  0  0
    1.1471    1.6006   -0.6521 H   0  0  0  0  0  0  0  0  0  0  0  0
    2.0359    0.2819   -0.2781 H   0  0  0  0  0  0  0  0  0  0  0  0
    1.4810    1.2784    0.9852 H   0  0  0  0  0  0  0  0  0  0  0  0
    0.0000    0.0000    0.0000 C   0  0  0  0  0  0  0  0  0  0  0  0
    0.0103   -0.5916   -0.8165 H   0  0  0  0  0  0  0  0  0  0  0  0
    0.0102   -0.5912    0.8159 H   0  0  0  0  0  0  0  0  0  0  0  0
   -1.2755    0.8042   -0.0000 N   0  0  0  0  0  4  0  0  0  0  0  0
   -1.1360    1.6281    0.5427 H   0  0  0  0  0  0  0  0  0  0  0  0
   -1.5019    1.0472   -0.9396 H   0  0  0  0  0  0  0  0  0  0  0  0
   -2.0036    0.2521    0.3961 H   0  0  0  0  0  0  0  0  0  0  0  0
   -2.2274    4.3091    2.7490 C   0  0  0  0  0  0  0  0  0  0  0  0
   -3.0872    4.8205    2.9575 H   0  0  0  0  0  0  0  0  0  0  0  0
   -1.4639    4.8768    3.1211 H   0  0  0  0  0  0  0  0  0  0  0  0
   -2.2477    3.3536    3.2730 H   0  0  0  0  0  0  0  0  0  0  0  0
   -2.0403    4.0821    0.9711 S   0  0  0  0  0  0  0  0  0  0  0  0
   -3.6806    4.4134    0.3570 C   0  0  0  0  0  0  0  0  0  0  0  0
   -4.1658    3.5503    0.2012 H   0  0  0  0  0  0  0  0  0  0  0  0
   -4.1903    4.9604    1.0252 H   0  0  0  0  0  0  0  0  0  0  0  0
   -3.6244    4.9194   -0.5066 H   0  0  0  0  0  0  0  0  0  0  0  0
  1  5  1  0
  5  8  1  0
  1  2  1  0
  1  3  1  0
  1  4  1  0
  5  6  1  0
  5  7  1  0
  8  9  1  0
  8 10  1  0
  8 11  1  0
 12 16  1  0
 16 17  1  0
 12 13  1  0
 12 14  1  0
 12 15  1  0
 17 18  1  0
 17 19  1  0
 17 20  1  0
M  CHG  1   8   1
M  END
>  <PDB_ID>  (1527) 
pdb6d3f

>  <RESIDUE_NAME>  (1527) 
LYS   MET

>  <FRAG_NAME>  (1527) 
ETAM   MSM

>  <FRAG_ATOM_NUM>  (1527) 
fragi: 11  fragj: 9

>  <atom.prop.CHAIN_ID>  (1527) 
A A A A A A A A A A A Z Z Z Z Z Z Z Z Z

>  <atom.prop.IS_HEAVY_ATOM>  (1527) 
1 0 0 0 1 0 0 1 0 0 0 1 0 0 0 1 1 0 0 0

>  <DIFUSE_FUNC_ATOM>  (1527) 
n/a

>  <FINAL_SINGLE_POINT_ENERGY>  (1527) 
0

>  <NONCOV_INTER_ENERGY_QM>  (1527) 
0

>  <FF_Energy>  (1527) 
-5.0

>  <QM_Energy>  (1527) 
-13.8

>  <source>  (1527) 
ETAM_MSM

>  <Index>  (1527) 
9729

$$$$
ETAM-pdb5cyz-A-LYS-388:MSM-pdb5cyz-A-MET-299
     RDKit          3D

 20 18  0  0  0  0  0  0  0  0999 V2000
    1.2322    0.8751   -0.0000 C   0  0  0  0  0  0  0  0  0  0  0  0
    1.2140    1.4545    0.8173 H   0  0  0  0  0  0  0  0  0  0  0  0
    1.2139    1.4534   -0.8160 H   0  0  0  0  0  0  0  0  0  0  0  0
    2.1574    0.2987    0.0009 H   0  0  0  0  0  0  0  0  0  0  0  0
    0.0000    0.0000    0.0000 C   0  0  0  0  0  0  0  0  0  0  0  0
    0.0087   -0.5781   -0.8158 H   0  0  0  0  0  0  0  0  0  0  0  0
    0.0080   -0.5787    0.8169 H   0  0  0  0  0  0  0  0  0  0  0  0
   -1.2322    0.8276   -0.0000 N   0  0  0  0  0  4  0  0  0  0  0  0
   -2.0285    0.2394   -0.1462 H   0  0  0  0  0  0  0  0  0  0  0  0
   -1.3203    1.2952    0.8789 H   0  0  0  0  0  0  0  0  0  0  0  0
   -1.1790    1.5048   -0.7340 H   0  0  0  0  0  0  0  0  0  0  0  0
   -2.1638    3.1670   -0.2370 C   0  0  0  0  0  0  0  0  0  0  0  0
   -2.5427    2.6271    0.5263 H   0  0  0  0  0  0  0  0  0  0  0  0
   -1.7406    2.5281   -0.8929 H   0  0  0  0  0  0  0  0  0  0  0  0
   -2.9648    3.7195   -0.7281 H   0  0  0  0  0  0  0  0  0  0  0  0
   -0.9498    4.3488    0.3676 S   0  0  0  0  0  0  0  0  0  0  0  0
   -2.0072    5.7112    0.8587 C   0  0  0  0  0  0  0  0  0  0  0  0
   -1.6211    6.5719    0.5257 H   0  0  0  0  0  0  0  0  0  0  0  0
   -2.9206    5.5839    0.4686 H   0  0  0  0  0  0  0  0  0  0  0  0
   -2.0732    5.7413    1.8567 H   0  0  0  0  0  0  0  0  0  0  0  0
  1  5  1  0
  5  8  1  0
  1  2  1  0
  1  3  1  0
  1  4  1  0
  5  6  1  0
  5  7  1  0
  8  9  1  0
  8 10  1  0
  8 11  1  0
 12 16  1  0
 16 17  1  0
 12 13  1  0
 12 14  1  0
 12 15  1  0
 17 18  1  0
 17 19  1  0
 17 20  1  0
M  CHG  1   8   1
M  END
>  <PDB_ID>  (1528) 
pdb5cyz

>  <RESIDUE_NAME>  (1528) 
LYS   MET

>  <FRAG_NAME>  (1528) 
ETAM   MSM

>  <FRAG_ATOM_NUM>  (1528) 
fragi: 11  fragj: 9

>  <atom.prop.CHAIN_ID>  (1528) 
A A A A A A A A A A A Z Z Z Z Z Z Z Z Z

>  <atom.prop.IS_HEAVY_ATOM>  (1528) 
1 0 0 0 1 0 0 1 0 0 0 1 0 0 0 1 1 0 0 0

>  <DIFUSE_FUNC_ATOM>  (1528) 
n/a

>  <FINAL_SINGLE_POINT_ENERGY>  (1528) 
0

>  <NONCOV_INTER_ENERGY_QM>  (1528) 
0

>  <FF_Energy>  (1528) 
39.58

>  <QM_Energy>  (1528) 
18.15

>  <source>  (1528) 
ETAM_MSM

>  <Index>  (1528) 
9730

$$$$
ETAM-pdb5d3d-A-LYS-261:MSM-pdb5d3d-A-MET-309
     RDKit          3D

 20 18  0  0  0  0  0  0  0  0999 V2000
    1.2393    0.8847    0.0000 C   0  0  0  0  0  0  0  0  0  0  0  0
    1.1469    1.5561   -0.7249 H   0  0  0  0  0  0  0  0  0  0  0  0
    2.0351    0.3117   -0.1491 H   0  0  0  0  0  0  0  0  0  0  0  0
    1.3445    1.4018    0.9538 H   0  0  0  0  0  0  0  0  0  0  0  0
    0.0000    0.0000    0.0000 C   0  0  0  0  0  0  0  0  0  0  0  0
    0.0130   -0.5758   -0.8163 H   0  0  0  0  0  0  0  0  0  0  0  0
    0.0124   -0.5756    0.8167 H   0  0  0  0  0  0  0  0  0  0  0  0
   -1.2393    0.8259   -0.0000 N   0  0  0  0  0  4  0  0  0  0  0  0
   -1.9146    0.4089    0.6069 H   0  0  0  0  0  0  0  0  0  0  0  0
   -1.0231    1.7470    0.3210 H   0  0  0  0  0  0  0  0  0  0  0  0
   -1.6066    0.8722   -0.9286 H   0  0  0  0  0  0  0  0  0  0  0  0
   -0.9306    5.0214    0.3296 C   0  0  0  0  0  0  0  0  0  0  0  0
   -0.5217    4.6040    1.1637 H   0  0  0  0  0  0  0  0  0  0  0  0
   -1.1594    5.9847    0.5687 H   0  0  0  0  0  0  0  0  0  0  0  0
   -0.1893    5.0184   -0.4696 H   0  0  0  0  0  0  0  0  0  0  0  0
   -2.4115    4.1231   -0.1688 S   0  0  0  0  0  0  0  0  0  0  0  0
   -3.2129    4.1232    1.4316 C   0  0  0  0  0  0  0  0  0  0  0  0
   -3.8388    3.3440    1.4946 H   0  0  0  0  0  0  0  0  0  0  0  0
   -2.5223    4.0518    2.1538 H   0  0  0  0  0  0  0  0  0  0  0  0
   -3.7290    4.9737    1.5494 H   0  0  0  0  0  0  0  0  0  0  0  0
  1  5  1  0
  5  8  1  0
  1  2  1  0
  1  3  1  0
  1  4  1  0
  5  6  1  0
  5  7  1  0
  8  9  1  0
  8 10  1  0
  8 11  1  0
 12 16  1  0
 16 17  1  0
 12 13  1  0
 12 14  1  0
 12 15  1  0
 17 18  1  0
 17 19  1  0
 17 20  1  0
M  CHG  1   8   1
M  END
>  <PDB_ID>  (1529) 
pdb5d3d

>  <RESIDUE_NAME>  (1529) 
LYS   MET

>  <FRAG_NAME>  (1529) 
ETAM   MSM

>  <FRAG_ATOM_NUM>  (1529) 
fragi: 11  fragj: 9

>  <atom.prop.CHAIN_ID>  (1529) 
A A A A A A A A A A A Z Z Z Z Z Z Z Z Z

>  <atom.prop.IS_HEAVY_ATOM>  (1529) 
1 0 0 0 1 0 0 1 0 0 0 1 0 0 0 1 1 0 0 0

>  <DIFUSE_FUNC_ATOM>  (1529) 
n/a

>  <FINAL_SINGLE_POINT_ENERGY>  (1529) 
0

>  <NONCOV_INTER_ENERGY_QM>  (1529) 
0

>  <FF_Energy>  (1529) 
-4.53

>  <QM_Energy>  (1529) 
-11.98

>  <source>  (1529) 
ETAM_MSM

>  <Index>  (1529) 
9740

$$$$
ETAM-pdb5d3d-B-LYS-261:MSM-pdb5d3d-B-MET-309
     RDKit          3D

 20 18  0  0  0  0  0  0  0  0999 V2000
    1.2606    0.8407    0.0000 C   0  0  0  0  0  0  0  0  0  0  0  0
    1.2607    1.4170   -0.8168 H   0  0  0  0  0  0  0  0  0  0  0  0
    2.0522    0.2293   -0.0231 H   0  0  0  0  0  0  0  0  0  0  0  0
    1.3368    1.4805    0.8793 H   0  0  0  0  0  0  0  0  0  0  0  0
    0.0000    0.0000    0.0000 C   0  0  0  0  0  0  0  0  0  0  0  0
    0.0024   -0.5974   -0.8166 H   0  0  0  0  0  0  0  0  0  0  0  0
    0.0023   -0.5973    0.8164 H   0  0  0  0  0  0  0  0  0  0  0  0
   -1.2606    0.8055    0.0000 N   0  0  0  0  0  4  0  0  0  0  0  0
   -2.0231    0.2200    0.2691 H   0  0  0  0  0  0  0  0  0  0  0  0
   -1.1682    1.5590    0.6483 H   0  0  0  0  0  0  0  0  0  0  0  0
   -1.4186    1.1664   -0.9175 H   0  0  0  0  0  0  0  0  0  0  0  0
   -0.6314    5.1180   -0.1573 C   0  0  0  0  0  0  0  0  0  0  0  0
   -0.1951    4.8080    0.7109 H   0  0  0  0  0  0  0  0  0  0  0  0
   -0.8153    6.1143   -0.0474 H   0  0  0  0  0  0  0  0  0  0  0  0
    0.0760    4.9785   -0.9748 H   0  0  0  0  0  0  0  0  0  0  0  0
   -2.1461    4.2187   -0.4689 S   0  0  0  0  0  0  0  0  0  0  0  0
   -3.0277    4.5668    1.0544 C   0  0  0  0  0  0  0  0  0  0  0  0
   -2.8413    5.5073    1.3409 H   0  0  0  0  0  0  0  0  0  0  0  0
   -4.0101    4.4523    0.9054 H   0  0  0  0  0  0  0  0  0  0  0  0
   -2.7237    3.9356    1.7680 H   0  0  0  0  0  0  0  0  0  0  0  0
  1  5  1  0
  5  8  1  0
  1  2  1  0
  1  3  1  0
  1  4  1  0
  5  6  1  0
  5  7  1  0
  8  9  1  0
  8 10  1  0
  8 11  1  0
 12 16  1  0
 16 17  1  0
 12 13  1  0
 12 14  1  0
 12 15  1  0
 17 18  1  0
 17 19  1  0
 17 20  1  0
M  CHG  1   8   1
M  END
>  <PDB_ID>  (1530) 
pdb5d3d

>  <RESIDUE_NAME>  (1530) 
LYS   MET

>  <FRAG_NAME>  (1530) 
ETAM   MSM

>  <FRAG_ATOM_NUM>  (1530) 
fragi: 11  fragj: 9

>  <atom.prop.CHAIN_ID>  (1530) 
A A A A A A A A A A A Z Z Z Z Z Z Z Z Z

>  <atom.prop.IS_HEAVY_ATOM>  (1530) 
1 0 0 0 1 0 0 1 0 0 0 1 0 0 0 1 1 0 0 0

>  <DIFUSE_FUNC_ATOM>  (1530) 
n/a

>  <FINAL_SINGLE_POINT_ENERGY>  (1530) 
0

>  <NONCOV_INTER_ENERGY_QM>  (1530) 
0

>  <FF_Energy>  (1530) 
-4.53

>  <QM_Energy>  (1530) 
-11.5

>  <source>  (1530) 
ETAM_MSM

>  <Index>  (1530) 
9741

$$$$
ETAM-pdb5d22-B-LYS-107:MSM-pdb5d22-B-MET-36
     RDKit          3D

 20 18  0  0  0  0  0  0  0  0999 V2000
    1.2137    0.8873    0.0000 C   0  0  0  0  0  0  0  0  0  0  0  0
    1.2691    1.3617    0.8853 H   0  0  0  0  0  0  0  0  0  0  0  0
    1.1137    1.5747   -0.7271 H   0  0  0  0  0  0  0  0  0  0  0  0
    2.1483    0.3500   -0.1607 H   0  0  0  0  0  0  0  0  0  0  0  0
    0.0000    0.0000    0.0000 C   0  0  0  0  0  0  0  0  0  0  0  0
   -0.0090   -0.5562   -0.8160 H   0  0  0  0  0  0  0  0  0  0  0  0
   -0.0088   -0.5568    0.8166 H   0  0  0  0  0  0  0  0  0  0  0  0
   -1.2137    0.8820   -0.0000 N   0  0  0  0  0  4  0  0  0  0  0  0
   -1.2296    1.4137   -0.8434 H   0  0  0  0  0  0  0  0  0  0  0  0
   -2.0305    0.3121    0.0568 H   0  0  0  0  0  0  0  0  0  0  0  0
   -1.1715    1.4940    0.7866 H   0  0  0  0  0  0  0  0  0  0  0  0
   -3.2490   -3.4977   -2.4856 C   0  0  0  0  0  0  0  0  0  0  0  0
   -3.7268   -2.9251   -3.1767 H   0  0  0  0  0  0  0  0  0  0  0  0
   -3.9423   -3.7600   -1.7903 H   0  0  0  0  0  0  0  0  0  0  0  0
   -2.8785   -4.4000   -2.9722 H   0  0  0  0  0  0  0  0  0  0  0  0
   -1.8938   -2.5805   -1.7218 S   0  0  0  0  0  0  0  0  0  0  0  0
   -1.6998   -3.4858   -0.2076 C   0  0  0  0  0  0  0  0  0  0  0  0
   -0.8885   -3.1611    0.2857 H   0  0  0  0  0  0  0  0  0  0  0  0
   -2.5069   -3.3581    0.3752 H   0  0  0  0  0  0  0  0  0  0  0  0
   -1.5911   -4.4647   -0.4038 H   0  0  0  0  0  0  0  0  0  0  0  0
  1  5  1  0
  5  8  1  0
  1  2  1  0
  1  3  1  0
  1  4  1  0
  5  6  1  0
  5  7  1  0
  8  9  1  0
  8 10  1  0
  8 11  1  0
 12 16  1  0
 16 17  1  0
 12 13  1  0
 12 14  1  0
 12 15  1  0
 17 18  1  0
 17 19  1  0
 17 20  1  0
M  CHG  1   8   1
M  END
>  <PDB_ID>  (1531) 
pdb5d22

>  <RESIDUE_NAME>  (1531) 
LYS   MET

>  <FRAG_NAME>  (1531) 
ETAM   MSM

>  <FRAG_ATOM_NUM>  (1531) 
fragi: 11  fragj: 9

>  <atom.prop.CHAIN_ID>  (1531) 
A A A A A A A A A A A Z Z Z Z Z Z Z Z Z

>  <atom.prop.IS_HEAVY_ATOM>  (1531) 
1 0 0 0 1 0 0 1 0 0 0 1 0 0 0 1 1 0 0 0

>  <DIFUSE_FUNC_ATOM>  (1531) 
n/a

>  <FINAL_SINGLE_POINT_ENERGY>  (1531) 
0

>  <NONCOV_INTER_ENERGY_QM>  (1531) 
0

>  <FF_Energy>  (1531) 
-4.35

>  <QM_Energy>  (1531) 
-9.78

>  <source>  (1531) 
ETAM_MSM

>  <Index>  (1531) 
9742

$$$$
ETAM-pdb6deg-B-LYS-136:MSM-pdb6deg-B-MET-187
     RDKit          3D

 20 18  0  0  0  0  0  0  0  0999 V2000
    1.2511    0.8558   -0.0000 C   0  0  0  0  0  0  0  0  0  0  0  0
    1.3644    1.2562    0.9021 H   0  0  0  0  0  0  0  0  0  0  0  0
    1.1508    1.5673   -0.6860 H   0  0  0  0  0  0  0  0  0  0  0  0
    2.1345    0.2617   -0.2343 H   0  0  0  0  0  0  0  0  0  0  0  0
    0.0000    0.0000    0.0000 C   0  0  0  0  0  0  0  0  0  0  0  0
    0.0092   -0.5918   -0.8165 H   0  0  0  0  0  0  0  0  0  0  0  0
    0.0083   -0.5924    0.8166 H   0  0  0  0  0  0  0  0  0  0  0  0
   -1.2511    0.8056   -0.0000 N   0  0  0  0  0  4  0  0  0  0  0  0
   -1.9879    0.2740   -0.4162 H   0  0  0  0  0  0  0  0  0  0  0  0
   -1.4963    1.0377    0.9410 H   0  0  0  0  0  0  0  0  0  0  0  0
   -1.1059    1.6444   -0.5248 H   0  0  0  0  0  0  0  0  0  0  0  0
   -2.0071   -1.8929    1.9893 C   0  0  0  0  0  0  0  0  0  0  0  0
   -2.4939   -2.7050    1.5928 H   0  0  0  0  0  0  0  0  0  0  0  0
   -1.9521   -1.2086    1.2262 H   0  0  0  0  0  0  0  0  0  0  0  0
   -2.6194   -1.4763    2.7889 H   0  0  0  0  0  0  0  0  0  0  0  0
   -0.3634   -2.3495    2.5519 S   0  0  0  0  0  0  0  0  0  0  0  0
   -0.7118   -2.7926    4.2448 C   0  0  0  0  0  0  0  0  0  0  0  0
   -1.6904   -2.9801    4.3517 H   0  0  0  0  0  0  0  0  0  0  0  0
   -0.1898   -3.6111    4.4960 H   0  0  0  0  0  0  0  0  0  0  0  0
   -0.4530   -2.0392    4.8526 H   0  0  0  0  0  0  0  0  0  0  0  0
  1  5  1  0
  5  8  1  0
  1  2  1  0
  1  3  1  0
  1  4  1  0
  5  6  1  0
  5  7  1  0
  8  9  1  0
  8 10  1  0
  8 11  1  0
 12 16  1  0
 16 17  1  0
 12 13  1  0
 12 14  1  0
 12 15  1  0
 17 18  1  0
 17 19  1  0
 17 20  1  0
M  CHG  1   8   1
M  END
>  <PDB_ID>  (1532) 
pdb6deg

>  <RESIDUE_NAME>  (1532) 
LYS   MET

>  <FRAG_NAME>  (1532) 
ETAM   MSM

>  <FRAG_ATOM_NUM>  (1532) 
fragi: 11  fragj: 9

>  <atom.prop.CHAIN_ID>  (1532) 
A A A A A A A A A A A Z Z Z Z Z Z Z Z Z

>  <atom.prop.IS_HEAVY_ATOM>  (1532) 
1 0 0 0 1 0 0 1 0 0 0 1 0 0 0 1 1 0 0 0

>  <DIFUSE_FUNC_ATOM>  (1532) 
n/a

>  <FINAL_SINGLE_POINT_ENERGY>  (1532) 
0

>  <NONCOV_INTER_ENERGY_QM>  (1532) 
0

>  <FF_Energy>  (1532) 
3.38

>  <QM_Energy>  (1532) 
-4.03

>  <source>  (1532) 
ETAM_MSM

>  <Index>  (1532) 
9765

$$$$
ETAM-pdb5dec-A-LYS-48:MSM-pdb5dec-A-MET-70
     RDKit          3D

 20 18  0  0  0  0  0  0  0  0999 V2000
    1.2288    0.8705    0.0000 C   0  0  0  0  0  0  0  0  0  0  0  0
    1.1802    1.4956    0.7761 H   0  0  0  0  0  0  0  0  0  0  0  0
    1.2562    1.3885   -0.8522 H   0  0  0  0  0  0  0  0  0  0  0  0
    2.1404    0.2786    0.0823 H   0  0  0  0  0  0  0  0  0  0  0  0
    0.0000    0.0000    0.0000 C   0  0  0  0  0  0  0  0  0  0  0  0
    0.0022   -0.5765   -0.8164 H   0  0  0  0  0  0  0  0  0  0  0  0
    0.0020   -0.5763    0.8163 H   0  0  0  0  0  0  0  0  0  0  0  0
   -1.2288    0.8381    0.0000 N   0  0  0  0  0  4  0  0  0  0  0  0
   -1.8615    0.4990   -0.6954 H   0  0  0  0  0  0  0  0  0  0  0  0
   -1.6628    0.7908    0.8994 H   0  0  0  0  0  0  0  0  0  0  0  0
   -0.9838    1.7855   -0.2036 H   0  0  0  0  0  0  0  0  0  0  0  0
   -4.8701   -1.2563   -1.2797 C   0  0  0  0  0  0  0  0  0  0  0  0
   -4.3300   -0.6464   -1.8931 H   0  0  0  0  0  0  0  0  0  0  0  0
   -5.6457   -0.6956   -0.9275 H   0  0  0  0  0  0  0  0  0  0  0  0
   -5.2710   -2.0804   -1.8699 H   0  0  0  0  0  0  0  0  0  0  0  0
   -3.8463   -1.8543    0.0855 S   0  0  0  0  0  0  0  0  0  0  0  0
   -5.0390   -2.8606    0.9668 C   0  0  0  0  0  0  0  0  0  0  0  0
   -4.8983   -2.7613    1.9528 H   0  0  0  0  0  0  0  0  0  0  0  0
   -5.9662   -2.5644    0.7327 H   0  0  0  0  0  0  0  0  0  0  0  0
   -4.9225   -3.8208    0.7099 H   0  0  0  0  0  0  0  0  0  0  0  0
  1  5  1  0
  5  8  1  0
  1  2  1  0
  1  3  1  0
  1  4  1  0
  5  6  1  0
  5  7  1  0
  8  9  1  0
  8 10  1  0
  8 11  1  0
 12 16  1  0
 16 17  1  0
 12 13  1  0
 12 14  1  0
 12 15  1  0
 17 18  1  0
 17 19  1  0
 17 20  1  0
M  CHG  1   8   1
M  END
>  <PDB_ID>  (1533) 
pdb5dec

>  <RESIDUE_NAME>  (1533) 
LYS   MET

>  <FRAG_NAME>  (1533) 
ETAM   MSM

>  <FRAG_ATOM_NUM>  (1533) 
fragi: 11  fragj: 9

>  <atom.prop.CHAIN_ID>  (1533) 
A A A A A A A A A A A Z Z Z Z Z Z Z Z Z

>  <atom.prop.IS_HEAVY_ATOM>  (1533) 
1 0 0 0 1 0 0 1 0 0 0 1 0 0 0 1 1 0 0 0

>  <DIFUSE_FUNC_ATOM>  (1533) 
n/a

>  <FINAL_SINGLE_POINT_ENERGY>  (1533) 
0

>  <NONCOV_INTER_ENERGY_QM>  (1533) 
0

>  <FF_Energy>  (1533) 
-4.59

>  <QM_Energy>  (1533) 
-9.86

>  <source>  (1533) 
ETAM_MSM

>  <Index>  (1533) 
9780

$$$$
ETAM-pdb5dgo-A-LYS-116:MSM-pdb5dgo-A-MET-1
     RDKit          3D

 20 18  0  0  0  0  0  0  0  0999 V2000
    1.2479    0.8707   -0.0000 C   0  0  0  0  0  0  0  0  0  0  0  0
    1.1863    1.4927    0.7421 H   0  0  0  0  0  0  0  0  0  0  0  0
    1.2843    1.3526   -0.8409 H   0  0  0  0  0  0  0  0  0  0  0  0
    2.1480    0.2656    0.1089 H   0  0  0  0  0  0  0  0  0  0  0  0
    0.0000    0.0000    0.0000 C   0  0  0  0  0  0  0  0  0  0  0  0
    0.0003   -0.5556   -0.7948 H   0  0  0  0  0  0  0  0  0  0  0  0
   -0.0008   -0.5546    0.7960 H   0  0  0  0  0  0  0  0  0  0  0  0
   -1.2479    0.8086    0.0000 N   0  0  0  0  0  4  0  0  0  0  0  0
   -1.9584    0.2724    0.0002 H   0  0  0  0  0  0  0  0  0  0  0  0
   -1.2758    1.3252    0.7245 H   0  0  0  0  0  0  0  0  0  0  0  0
   -1.2761    1.3246   -0.7251 H   0  0  0  0  0  0  0  0  0  0  0  0
    0.2313    4.1548   -2.1860 C   0  0  0  0  0  0  0  0  0  0  0  0
    0.3976    3.3782   -2.7430 H   0  0  0  0  0  0  0  0  0  0  0  0
    0.8832    4.1958   -1.4693 H   0  0  0  0  0  0  0  0  0  0  0  0
    0.3176    5.0540   -2.7959 H   0  0  0  0  0  0  0  0  0  0  0  0
   -1.4063    3.9699   -1.4435 S   0  0  0  0  0  0  0  0  0  0  0  0
   -1.4176    5.3295   -0.2759 C   0  0  0  0  0  0  0  0  0  0  0  0
   -2.2660    5.3346    0.1946 H   0  0  0  0  0  0  0  0  0  0  0  0
   -0.6895    5.2098    0.3541 H   0  0  0  0  0  0  0  0  0  0  0  0
   -1.3030    6.1622   -0.7608 H   0  0  0  0  0  0  0  0  0  0  0  0
  1  5  1  0
  5  8  1  0
  1  2  1  0
  1  3  1  0
  1  4  1  0
  5  6  1  0
  5  7  1  0
  8  9  1  0
  8 10  1  0
  8 11  1  0
 12 16  1  0
 16 17  1  0
 12 13  1  0
 12 14  1  0
 12 15  1  0
 17 18  1  0
 17 19  1  0
 17 20  1  0
M  CHG  1   8   1
M  END
>  <PDB_ID>  (1534) 
pdb5dgo

>  <RESIDUE_NAME>  (1534) 
LYS   MET

>  <FRAG_NAME>  (1534) 
ETAM   MSM

>  <FRAG_ATOM_NUM>  (1534) 
fragi: 11  fragj: 9

>  <atom.prop.CHAIN_ID>  (1534) 
A A A A A A A A A A A Z Z Z Z Z Z Z Z Z

>  <atom.prop.IS_HEAVY_ATOM>  (1534) 
1 0 0 0 1 0 0 1 0 0 0 1 0 0 0 1 1 0 0 0

>  <DIFUSE_FUNC_ATOM>  (1534) 
n/a

>  <FINAL_SINGLE_POINT_ENERGY>  (1534) 
0

>  <NONCOV_INTER_ENERGY_QM>  (1534) 
0

>  <FF_Energy>  (1534) 
-5.21

>  <QM_Energy>  (1534) 
-13.34

>  <source>  (1534) 
ETAM_MSM

>  <Index>  (1534) 
9783

$$$$
ETAM-pdb6d5d-A-LYS-325:MSM-pdb6d5d-A-MET-157
     RDKit          3D

 20 18  0  0  0  0  0  0  0  0999 V2000
    1.2414    0.9150    0.0000 C   0  0  0  0  0  0  0  0  0  0  0  0
    1.1776    1.5052    0.8004 H   0  0  0  0  0  0  0  0  0  0  0  0
    1.2082    1.4622   -0.8316 H   0  0  0  0  0  0  0  0  0  0  0  0
    2.1634    0.3346    0.0335 H   0  0  0  0  0  0  0  0  0  0  0  0
    0.0000    0.0000    0.0000 C   0  0  0  0  0  0  0  0  0  0  0  0
    0.0202   -0.5619   -0.8161 H   0  0  0  0  0  0  0  0  0  0  0  0
    0.0198   -0.5621    0.8163 H   0  0  0  0  0  0  0  0  0  0  0  0
   -1.2414    0.8374   -0.0000 N   0  0  0  0  0  4  0  0  0  0  0  0
   -2.0384    0.2407   -0.0762 H   0  0  0  0  0  0  0  0  0  0  0  0
   -1.2869    1.3547    0.8523 H   0  0  0  0  0  0  0  0  0  0  0  0
   -1.2131    1.4643   -0.7757 H   0  0  0  0  0  0  0  0  0  0  0  0
   -1.0749   -0.3745   -4.3274 C   0  0  0  0  0  0  0  0  0  0  0  0
   -1.7597   -1.0199   -3.9294 H   0  0  0  0  0  0  0  0  0  0  0  0
   -0.1643   -0.8226   -4.2161 H   0  0  0  0  0  0  0  0  0  0  0  0
   -1.2829   -0.2399   -5.3889 H   0  0  0  0  0  0  0  0  0  0  0  0
   -1.1053    1.2114   -3.4066 S   0  0  0  0  0  0  0  0  0  0  0  0
    0.4855    1.9190   -3.8329 C   0  0  0  0  0  0  0  0  0  0  0  0
    0.9651    2.1927   -2.9978 H   0  0  0  0  0  0  0  0  0  0  0  0
    1.0338    1.2398   -4.3233 H   0  0  0  0  0  0  0  0  0  0  0  0
    0.3496    2.7206   -4.4163 H   0  0  0  0  0  0  0  0  0  0  0  0
  1  5  1  0
  5  8  1  0
  1  2  1  0
  1  3  1  0
  1  4  1  0
  5  6  1  0
  5  7  1  0
  8  9  1  0
  8 10  1  0
  8 11  1  0
 12 16  1  0
 16 17  1  0
 12 13  1  0
 12 14  1  0
 12 15  1  0
 17 18  1  0
 17 19  1  0
 17 20  1  0
M  CHG  1   8   1
M  END
>  <PDB_ID>  (1535) 
pdb6d5d

>  <RESIDUE_NAME>  (1535) 
LYS   MET

>  <FRAG_NAME>  (1535) 
ETAM   MSM

>  <FRAG_ATOM_NUM>  (1535) 
fragi: 11  fragj: 9

>  <atom.prop.CHAIN_ID>  (1535) 
A A A A A A A A A A A Z Z Z Z Z Z Z Z Z

>  <atom.prop.IS_HEAVY_ATOM>  (1535) 
1 0 0 0 1 0 0 1 0 0 0 1 0 0 0 1 1 0 0 0

>  <DIFUSE_FUNC_ATOM>  (1535) 
n/a

>  <FINAL_SINGLE_POINT_ENERGY>  (1535) 
0

>  <NONCOV_INTER_ENERGY_QM>  (1535) 
0

>  <FF_Energy>  (1535) 
-5.62

>  <QM_Energy>  (1535) 
-14.28

>  <source>  (1535) 
ETAM_MSM

>  <Index>  (1535) 
9789

$$$$
ETAM-pdb5dec-C-LYS-48:MSM-pdb5dec-C-MET-70
     RDKit          3D

 20 18  0  0  0  0  0  0  0  0999 V2000
    1.2366    0.8668    0.0000 C   0  0  0  0  0  0  0  0  0  0  0  0
    1.1945    1.4855    0.7792 H   0  0  0  0  0  0  0  0  0  0  0  0
    1.2646    1.3844   -0.8496 H   0  0  0  0  0  0  0  0  0  0  0  0
    2.1414    0.2639    0.0772 H   0  0  0  0  0  0  0  0  0  0  0  0
    0.0000    0.0000    0.0000 C   0  0  0  0  0  0  0  0  0  0  0  0
    0.0052   -0.5817   -0.8162 H   0  0  0  0  0  0  0  0  0  0  0  0
    0.0044   -0.5811    0.8163 H   0  0  0  0  0  0  0  0  0  0  0  0
   -1.2366    0.8275   -0.0000 N   0  0  0  0  0  4  0  0  0  0  0  0
   -1.1307    1.5826   -0.6466 H   0  0  0  0  0  0  0  0  0  0  0  0
   -2.0141    0.2614   -0.2711 H   0  0  0  0  0  0  0  0  0  0  0  0
   -1.3917    1.1924    0.9177 H   0  0  0  0  0  0  0  0  0  0  0  0
   -4.9722   -0.6162   -0.8798 C   0  0  0  0  0  0  0  0  0  0  0  0
   -4.4370    0.0100   -1.4757 H   0  0  0  0  0  0  0  0  0  0  0  0
   -5.7123   -0.0612   -0.4590 H   0  0  0  0  0  0  0  0  0  0  0  0
   -5.4189   -1.3975   -1.4947 H   0  0  0  0  0  0  0  0  0  0  0  0
   -3.9168   -1.3383    0.3928 S   0  0  0  0  0  0  0  0  0  0  0  0
   -5.0892   -2.3870    1.2526 C   0  0  0  0  0  0  0  0  0  0  0  0
   -5.2144   -2.0528    2.1872 H   0  0  0  0  0  0  0  0  0  0  0  0
   -5.9682   -2.3700    0.7736 H   0  0  0  0  0  0  0  0  0  0  0  0
   -4.7431   -3.3257    1.2792 H   0  0  0  0  0  0  0  0  0  0  0  0
  1  5  1  0
  5  8  1  0
  1  2  1  0
  1  3  1  0
  1  4  1  0
  5  6  1  0
  5  7  1  0
  8  9  1  0
  8 10  1  0
  8 11  1  0
 12 16  1  0
 16 17  1  0
 12 13  1  0
 12 14  1  0
 12 15  1  0
 17 18  1  0
 17 19  1  0
 17 20  1  0
M  CHG  1   8   1
M  END
>  <PDB_ID>  (1536) 
pdb5dec

>  <RESIDUE_NAME>  (1536) 
LYS   MET

>  <FRAG_NAME>  (1536) 
ETAM   MSM

>  <FRAG_ATOM_NUM>  (1536) 
fragi: 11  fragj: 9

>  <atom.prop.CHAIN_ID>  (1536) 
A A A A A A A A A A A Z Z Z Z Z Z Z Z Z

>  <atom.prop.IS_HEAVY_ATOM>  (1536) 
1 0 0 0 1 0 0 1 0 0 0 1 0 0 0 1 1 0 0 0

>  <DIFUSE_FUNC_ATOM>  (1536) 
n/a

>  <FINAL_SINGLE_POINT_ENERGY>  (1536) 
0

>  <NONCOV_INTER_ENERGY_QM>  (1536) 
0

>  <FF_Energy>  (1536) 
-5.3

>  <QM_Energy>  (1536) 
-11.67

>  <source>  (1536) 
ETAM_MSM

>  <Index>  (1536) 
9802

$$$$
ETAM-pdb6dlk-B-LYS-227:MSM-pdb6dlk-B-MET-119
     RDKit          3D

 20 18  0  0  0  0  0  0  0  0999 V2000
    1.2216    0.8879    0.0000 C   0  0  0  0  0  0  0  0  0  0  0  0
    1.2380    1.4040    0.8718 H   0  0  0  0  0  0  0  0  0  0  0  0
    1.1233    1.5615   -0.7500 H   0  0  0  0  0  0  0  0  0  0  0  0
    2.1719    0.3669   -0.1170 H   0  0  0  0  0  0  0  0  0  0  0  0
    0.0000    0.0000    0.0000 C   0  0  0  0  0  0  0  0  0  0  0  0
    0.0073   -0.5688   -0.8160 H   0  0  0  0  0  0  0  0  0  0  0  0
    0.0070   -0.5694    0.8165 H   0  0  0  0  0  0  0  0  0  0  0  0
   -1.2216    0.8428   -0.0000 N   0  0  0  0  0  4  0  0  0  0  0  0
   -1.4473    1.1023   -0.9390 H   0  0  0  0  0  0  0  0  0  0  0  0
   -1.9822    0.3274    0.3951 H   0  0  0  0  0  0  0  0  0  0  0  0
   -1.0590    1.6668    0.5436 H   0  0  0  0  0  0  0  0  0  0  0  0
   -2.7478   -2.8909   -3.0678 C   0  0  0  0  0  0  0  0  0  0  0  0
   -3.1300   -2.8965   -2.0927 H   0  0  0  0  0  0  0  0  0  0  0  0
   -2.2623   -3.8162   -3.1253 H   0  0  0  0  0  0  0  0  0  0  0  0
   -3.5948   -2.9190   -3.7533 H   0  0  0  0  0  0  0  0  0  0  0  0
   -1.5648   -1.5432   -3.2761 S   0  0  0  0  0  0  0  0  0  0  0  0
   -1.0140   -1.8216   -4.9671 C   0  0  0  0  0  0  0  0  0  0  0  0
   -0.0800   -1.4807   -5.0720 H   0  0  0  0  0  0  0  0  0  0  0  0
   -1.0377   -2.8010   -5.1664 H   0  0  0  0  0  0  0  0  0  0  0  0
   -1.6202   -1.3370   -5.5972 H   0  0  0  0  0  0  0  0  0  0  0  0
  1  5  1  0
  5  8  1  0
  1  2  1  0
  1  3  1  0
  1  4  1  0
  5  6  1  0
  5  7  1  0
  8  9  1  0
  8 10  1  0
  8 11  1  0
 12 16  1  0
 16 17  1  0
 12 13  1  0
 12 14  1  0
 12 15  1  0
 17 18  1  0
 17 19  1  0
 17 20  1  0
M  CHG  1   8   1
M  END
>  <PDB_ID>  (1537) 
pdb6dlk

>  <RESIDUE_NAME>  (1537) 
LYS   MET

>  <FRAG_NAME>  (1537) 
ETAM   MSM

>  <FRAG_ATOM_NUM>  (1537) 
fragi: 11  fragj: 9

>  <atom.prop.CHAIN_ID>  (1537) 
A A A A A A A A A A A Z Z Z Z Z Z Z Z Z

>  <atom.prop.IS_HEAVY_ATOM>  (1537) 
1 0 0 0 1 0 0 1 0 0 0 1 0 0 0 1 1 0 0 0

>  <DIFUSE_FUNC_ATOM>  (1537) 
n/a

>  <FINAL_SINGLE_POINT_ENERGY>  (1537) 
0

>  <NONCOV_INTER_ENERGY_QM>  (1537) 
0

>  <FF_Energy>  (1537) 
-4.56

>  <QM_Energy>  (1537) 
-9.87

>  <source>  (1537) 
ETAM_MSM

>  <Index>  (1537) 
9809

$$$$
ETAM-pdb5dec-D-LYS-48:MSM-pdb5dec-D-MET-70
     RDKit          3D

 20 18  0  0  0  0  0  0  0  0999 V2000
    1.2275    0.8791   -0.0000 C   0  0  0  0  0  0  0  0  0  0  0  0
    1.1833    1.4941    0.7852 H   0  0  0  0  0  0  0  0  0  0  0  0
    1.2424    1.4099   -0.8444 H   0  0  0  0  0  0  0  0  0  0  0  0
    2.1469    0.2972    0.0643 H   0  0  0  0  0  0  0  0  0  0  0  0
    0.0000    0.0000    0.0000 C   0  0  0  0  0  0  0  0  0  0  0  0
    0.0066   -0.5743   -0.8160 H   0  0  0  0  0  0  0  0  0  0  0  0
    0.0067   -0.5751    0.8164 H   0  0  0  0  0  0  0  0  0  0  0  0
   -1.2275    0.8350   -0.0000 N   0  0  0  0  0  4  0  0  0  0  0  0
   -0.9759    1.7982   -0.1012 H   0  0  0  0  0  0  0  0  0  0  0  0
   -1.8165    0.5628   -0.7614 H   0  0  0  0  0  0  0  0  0  0  0  0
   -1.7175    0.7076    0.8626 H   0  0  0  0  0  0  0  0  0  0  0  0
   -4.7548   -1.1383   -1.7233 C   0  0  0  0  0  0  0  0  0  0  0  0
   -4.2246   -0.5049   -2.3245 H   0  0  0  0  0  0  0  0  0  0  0  0
   -5.5136   -0.5816   -1.3247 H   0  0  0  0  0  0  0  0  0  0  0  0
   -5.1842   -1.9289   -2.3386 H   0  0  0  0  0  0  0  0  0  0  0  0
   -3.7041   -1.8075   -0.4199 S   0  0  0  0  0  0  0  0  0  0  0  0
   -4.8889   -2.8432    0.4425 C   0  0  0  0  0  0  0  0  0  0  0  0
   -5.8150   -2.6105    0.1450 H   0  0  0  0  0  0  0  0  0  0  0  0
   -4.7044   -3.8045    0.2357 H   0  0  0  0  0  0  0  0  0  0  0  0
   -4.8085   -2.6930    1.4288 H   0  0  0  0  0  0  0  0  0  0  0  0
  1  5  1  0
  5  8  1  0
  1  2  1  0
  1  3  1  0
  1  4  1  0
  5  6  1  0
  5  7  1  0
  8  9  1  0
  8 10  1  0
  8 11  1  0
 12 16  1  0
 16 17  1  0
 12 13  1  0
 12 14  1  0
 12 15  1  0
 17 18  1  0
 17 19  1  0
 17 20  1  0
M  CHG  1   8   1
M  END
>  <PDB_ID>  (1538) 
pdb5dec

>  <RESIDUE_NAME>  (1538) 
LYS   MET

>  <FRAG_NAME>  (1538) 
ETAM   MSM

>  <FRAG_ATOM_NUM>  (1538) 
fragi: 11  fragj: 9

>  <atom.prop.CHAIN_ID>  (1538) 
A A A A A A A A A A A Z Z Z Z Z Z Z Z Z

>  <atom.prop.IS_HEAVY_ATOM>  (1538) 
1 0 0 0 1 0 0 1 0 0 0 1 0 0 0 1 1 0 0 0

>  <DIFUSE_FUNC_ATOM>  (1538) 
n/a

>  <FINAL_SINGLE_POINT_ENERGY>  (1538) 
0

>  <NONCOV_INTER_ENERGY_QM>  (1538) 
0

>  <FF_Energy>  (1538) 
-4.92

>  <QM_Energy>  (1538) 
-10.98

>  <source>  (1538) 
ETAM_MSM

>  <Index>  (1538) 
9812

$$$$
ETAM-pdb6dk2-A-LYS-271:MSM-pdb6dk2-A-MET-53
     RDKit          3D

 20 18  0  0  0  0  0  0  0  0999 V2000
    1.2411    0.8695   -0.0000 C   0  0  0  0  0  0  0  0  0  0  0  0
    1.2775    1.3759    0.8618 H   0  0  0  0  0  0  0  0  0  0  0  0
    1.1794    1.5147   -0.7624 H   0  0  0  0  0  0  0  0  0  0  0  0
    2.1600    0.2926   -0.1038 H   0  0  0  0  0  0  0  0  0  0  0  0
    0.0000    0.0000    0.0000 C   0  0  0  0  0  0  0  0  0  0  0  0
    0.0140   -0.5865   -0.8160 H   0  0  0  0  0  0  0  0  0  0  0  0
    0.0130   -0.5865    0.8162 H   0  0  0  0  0  0  0  0  0  0  0  0
   -1.2411    0.8081    0.0000 N   0  0  0  0  0  4  0  0  0  0  0  0
   -1.9821    0.2851    0.4226 H   0  0  0  0  0  0  0  0  0  0  0  0
   -1.0922    1.6517    0.5185 H   0  0  0  0  0  0  0  0  0  0  0  0
   -1.4917    1.0370   -0.9413 H   0  0  0  0  0  0  0  0  0  0  0  0
   -3.0247   -2.3550   -0.8858 C   0  0  0  0  0  0  0  0  0  0  0  0
   -2.0368   -2.4603   -1.0711 H   0  0  0  0  0  0  0  0  0  0  0  0
   -3.4263   -1.8263   -1.6481 H   0  0  0  0  0  0  0  0  0  0  0  0
   -3.4904   -3.3397   -0.8445 H   0  0  0  0  0  0  0  0  0  0  0  0
   -3.2858   -1.4952    0.6883 S   0  0  0  0  0  0  0  0  0  0  0  0
   -2.1505   -2.3931    1.7470 C   0  0  0  0  0  0  0  0  0  0  0  0
   -1.4625   -2.8535    1.1858 H   0  0  0  0  0  0  0  0  0  0  0  0
   -1.6979   -1.7546    2.3698 H   0  0  0  0  0  0  0  0  0  0  0  0
   -2.6563   -3.0738    2.2785 H   0  0  0  0  0  0  0  0  0  0  0  0
  1  5  1  0
  5  8  1  0
  1  2  1  0
  1  3  1  0
  1  4  1  0
  5  6  1  0
  5  7  1  0
  8  9  1  0
  8 10  1  0
  8 11  1  0
 12 16  1  0
 16 17  1  0
 12 13  1  0
 12 14  1  0
 12 15  1  0
 17 18  1  0
 17 19  1  0
 17 20  1  0
M  CHG  1   8   1
M  END
>  <PDB_ID>  (1539) 
pdb6dk2

>  <RESIDUE_NAME>  (1539) 
LYS   MET

>  <FRAG_NAME>  (1539) 
ETAM   MSM

>  <FRAG_ATOM_NUM>  (1539) 
fragi: 11  fragj: 9

>  <atom.prop.CHAIN_ID>  (1539) 
A A A A A A A A A A A Z Z Z Z Z Z Z Z Z

>  <atom.prop.IS_HEAVY_ATOM>  (1539) 
1 0 0 0 1 0 0 1 0 0 0 1 0 0 0 1 1 0 0 0

>  <DIFUSE_FUNC_ATOM>  (1539) 
n/a

>  <FINAL_SINGLE_POINT_ENERGY>  (1539) 
0

>  <NONCOV_INTER_ENERGY_QM>  (1539) 
0

>  <FF_Energy>  (1539) 
-4.52

>  <QM_Energy>  (1539) 
-15.84

>  <source>  (1539) 
ETAM_MSM

>  <Index>  (1539) 
9816

$$$$
ETAM-pdb5dly-A-LYS-197:MSM-pdb5dly-A-MET-193
     RDKit          3D

 20 18  0  0  0  0  0  0  0  0999 V2000
    1.2608    0.8552    0.0000 C   0  0  0  0  0  0  0  0  0  0  0  0
    0.9962    1.8104   -0.1170 H   0  0  0  0  0  0  0  0  0  0  0  0
    1.8390    0.5671   -0.7603 H   0  0  0  0  0  0  0  0  0  0  0  0
    1.8272    0.7606    0.9265 H   0  0  0  0  0  0  0  0  0  0  0  0
    0.0000    0.0000    0.0000 C   0  0  0  0  0  0  0  0  0  0  0  0
    0.0119   -0.5950   -0.8165 H   0  0  0  0  0  0  0  0  0  0  0  0
    0.0108   -0.5951    0.8161 H   0  0  0  0  0  0  0  0  0  0  0  0
   -1.2608    0.7983   -0.0000 N   0  0  0  0  0  4  0  0  0  0  0  0
   -1.2007    1.5099   -0.6991 H   0  0  0  0  0  0  0  0  0  0  0  0
   -2.0321    0.1962   -0.1987 H   0  0  0  0  0  0  0  0  0  0  0  0
   -1.3847    1.2178    0.8983 H   0  0  0  0  0  0  0  0  0  0  0  0
   -1.3952    3.1708    3.1240 C   0  0  0  0  0  0  0  0  0  0  0  0
   -2.3712    3.0679    2.8567 H   0  0  0  0  0  0  0  0  0  0  0  0
   -0.8751    3.3595    2.2702 H   0  0  0  0  0  0  0  0  0  0  0  0
   -1.3015    4.0272    3.7917 H   0  0  0  0  0  0  0  0  0  0  0  0
   -0.7911    1.6814    3.9241 S   0  0  0  0  0  0  0  0  0  0  0  0
   -2.0983    1.4000    5.1124 C   0  0  0  0  0  0  0  0  0  0  0  0
   -2.8346    0.8718    4.6851 H   0  0  0  0  0  0  0  0  0  0  0  0
   -1.7381    0.8904    5.8957 H   0  0  0  0  0  0  0  0  0  0  0  0
   -2.4616    2.2778    5.4283 H   0  0  0  0  0  0  0  0  0  0  0  0
  1  5  1  0
  5  8  1  0
  1  2  1  0
  1  3  1  0
  1  4  1  0
  5  6  1  0
  5  7  1  0
  8  9  1  0
  8 10  1  0
  8 11  1  0
 12 16  1  0
 16 17  1  0
 12 13  1  0
 12 14  1  0
 12 15  1  0
 17 18  1  0
 17 19  1  0
 17 20  1  0
M  CHG  1   8   1
M  END
>  <PDB_ID>  (1540) 
pdb5dly

>  <RESIDUE_NAME>  (1540) 
LYS   MET

>  <FRAG_NAME>  (1540) 
ETAM   MSM

>  <FRAG_ATOM_NUM>  (1540) 
fragi: 11  fragj: 9

>  <atom.prop.CHAIN_ID>  (1540) 
A A A A A A A A A A A Z Z Z Z Z Z Z Z Z

>  <atom.prop.IS_HEAVY_ATOM>  (1540) 
1 0 0 0 1 0 0 1 0 0 0 1 0 0 0 1 1 0 0 0

>  <DIFUSE_FUNC_ATOM>  (1540) 
n/a

>  <FINAL_SINGLE_POINT_ENERGY>  (1540) 
0

>  <NONCOV_INTER_ENERGY_QM>  (1540) 
0

>  <FF_Energy>  (1540) 
-3.44

>  <QM_Energy>  (1540) 
-8.67

>  <source>  (1540) 
ETAM_MSM

>  <Index>  (1540) 
9817

$$$$
ETAM-pdb5dl8-B-LYS-105:MSM-pdb5dl8-B-MET-47
     RDKit          3D

 20 18  0  0  0  0  0  0  0  0999 V2000
    1.2451    0.8908    0.0000 C   0  0  0  0  0  0  0  0  0  0  0  0
    1.2073    1.4932    0.8051 H   0  0  0  0  0  0  0  0  0  0  0  0
    1.2280    1.4639   -0.8276 H   0  0  0  0  0  0  0  0  0  0  0  0
    2.1971    0.3604    0.0225 H   0  0  0  0  0  0  0  0  0  0  0  0
    0.0000    0.0000    0.0000 C   0  0  0  0  0  0  0  0  0  0  0  0
   -0.0087   -0.5540   -0.8158 H   0  0  0  0  0  0  0  0  0  0  0  0
   -0.0085   -0.5543    0.8165 H   0  0  0  0  0  0  0  0  0  0  0  0
   -1.2451    0.8854   -0.0000 N   0  0  0  0  0  4  0  0  0  0  0  0
   -1.4259    1.1691   -0.9346 H   0  0  0  0  0  0  0  0  0  0  0  0
   -2.0043    0.3549    0.3577 H   0  0  0  0  0  0  0  0  0  0  0  0
   -1.0664    1.6741    0.5768 H   0  0  0  0  0  0  0  0  0  0  0  0
   -1.1015    1.0596    5.0800 C   0  0  0  0  0  0  0  0  0  0  0  0
   -1.8021    1.7398    4.6733 H   0  0  0  0  0  0  0  0  0  0  0  0
   -0.5187    1.7054    5.6815 H   0  0  0  0  0  0  0  0  0  0  0  0
   -1.6457    0.3922    5.7484 H   0  0  0  0  0  0  0  0  0  0  0  0
   -0.0633    0.3636    3.7352 S   0  0  0  0  0  0  0  0  0  0  0  0
    1.3134   -0.2906    4.7114 C   0  0  0  0  0  0  0  0  0  0  0  0
    1.5748   -1.1832    4.3494 H   0  0  0  0  0  0  0  0  0  0  0  0
    2.0852    0.3396    4.6505 H   0  0  0  0  0  0  0  0  0  0  0  0
    1.0250   -0.3811    5.6627 H   0  0  0  0  0  0  0  0  0  0  0  0
  1  5  1  0
  5  8  1  0
  1  2  1  0
  1  3  1  0
  1  4  1  0
  5  6  1  0
  5  7  1  0
  8  9  1  0
  8 10  1  0
  8 11  1  0
 12 16  1  0
 16 17  1  0
 12 13  1  0
 12 14  1  0
 12 15  1  0
 17 18  1  0
 17 19  1  0
 17 20  1  0
M  CHG  1   8   1
M  END
>  <PDB_ID>  (1541) 
pdb5dl8

>  <RESIDUE_NAME>  (1541) 
LYS   MET

>  <FRAG_NAME>  (1541) 
ETAM   MSM

>  <FRAG_ATOM_NUM>  (1541) 
fragi: 11  fragj: 9

>  <atom.prop.CHAIN_ID>  (1541) 
A A A A A A A A A A A Z Z Z Z Z Z Z Z Z

>  <atom.prop.IS_HEAVY_ATOM>  (1541) 
1 0 0 0 1 0 0 1 0 0 0 1 0 0 0 1 1 0 0 0

>  <DIFUSE_FUNC_ATOM>  (1541) 
n/a

>  <FINAL_SINGLE_POINT_ENERGY>  (1541) 
0

>  <NONCOV_INTER_ENERGY_QM>  (1541) 
0

>  <FF_Energy>  (1541) 
-5.1

>  <QM_Energy>  (1541) 
-10.48

>  <source>  (1541) 
ETAM_MSM

>  <Index>  (1541) 
9830

$$$$
ETAM-pdb5do8-A-LYS-189:MSM-pdb5do8-A-MET-79
     RDKit          3D

 20 18  0  0  0  0  0  0  0  0999 V2000
    1.2575    0.8590    0.0000 C   0  0  0  0  0  0  0  0  0  0  0  0
    1.2421    1.4413   -0.8115 H   0  0  0  0  0  0  0  0  0  0  0  0
    2.0519    0.2546   -0.0348 H   0  0  0  0  0  0  0  0  0  0  0  0
    1.3319    1.4901    0.8855 H   0  0  0  0  0  0  0  0  0  0  0  0
    0.0000    0.0000    0.0000 C   0  0  0  0  0  0  0  0  0  0  0  0
    0.0158   -0.5958   -0.8163 H   0  0  0  0  0  0  0  0  0  0  0  0
    0.0153   -0.5961    0.8163 H   0  0  0  0  0  0  0  0  0  0  0  0
   -1.2575    0.7925   -0.0000 N   0  0  0  0  0  4  0  0  0  0  0  0
   -2.0022    0.2341    0.3640 H   0  0  0  0  0  0  0  0  0  0  0  0
   -1.1388    1.6041    0.5718 H   0  0  0  0  0  0  0  0  0  0  0  0
   -1.4750    1.0712   -0.9349 H   0  0  0  0  0  0  0  0  0  0  0  0
   -3.3539   -0.1661   -3.3015 C   0  0  0  0  0  0  0  0  0  0  0  0
   -3.0805    0.7871   -3.5914 H   0  0  0  0  0  0  0  0  0  0  0  0
   -3.8577   -0.0293   -2.4102 H   0  0  0  0  0  0  0  0  0  0  0  0
   -4.0558   -0.5597   -4.0366 H   0  0  0  0  0  0  0  0  0  0  0  0
   -1.8869   -1.1955   -3.0471 S   0  0  0  0  0  0  0  0  0  0  0  0
   -0.9648   -0.8213   -4.5406 C   0  0  0  0  0  0  0  0  0  0  0  0
   -0.2252   -1.4856   -4.6520 H   0  0  0  0  0  0  0  0  0  0  0  0
   -1.5760   -0.8681   -5.3311 H   0  0  0  0  0  0  0  0  0  0  0  0
   -0.5778    0.0988   -4.4728 H   0  0  0  0  0  0  0  0  0  0  0  0
  1  5  1  0
  5  8  1  0
  1  2  1  0
  1  3  1  0
  1  4  1  0
  5  6  1  0
  5  7  1  0
  8  9  1  0
  8 10  1  0
  8 11  1  0
 12 16  1  0
 16 17  1  0
 12 13  1  0
 12 14  1  0
 12 15  1  0
 17 18  1  0
 17 19  1  0
 17 20  1  0
M  CHG  1   8   1
M  END
>  <PDB_ID>  (1542) 
pdb5do8

>  <RESIDUE_NAME>  (1542) 
LYS   MET

>  <FRAG_NAME>  (1542) 
ETAM   MSM

>  <FRAG_ATOM_NUM>  (1542) 
fragi: 11  fragj: 9

>  <atom.prop.CHAIN_ID>  (1542) 
A A A A A A A A A A A Z Z Z Z Z Z Z Z Z

>  <atom.prop.IS_HEAVY_ATOM>  (1542) 
1 0 0 0 1 0 0 1 0 0 0 1 0 0 0 1 1 0 0 0

>  <DIFUSE_FUNC_ATOM>  (1542) 
n/a

>  <FINAL_SINGLE_POINT_ENERGY>  (1542) 
0

>  <NONCOV_INTER_ENERGY_QM>  (1542) 
0

>  <FF_Energy>  (1542) 
-4.28

>  <QM_Energy>  (1542) 
-10.62

>  <source>  (1542) 
ETAM_MSM

>  <Index>  (1542) 
9831

$$$$
ETAM-pdb5dow-A-LYS-76:MSM-pdb5dow-A-MET-72
     RDKit          3D

 20 18  0  0  0  0  0  0  0  0999 V2000
    1.2286    0.9163    0.0000 C   0  0  0  0  0  0  0  0  0  0  0  0
    1.1140    1.5943    0.7389 H   0  0  0  0  0  0  0  0  0  0  0  0
    1.2499    1.4113   -0.8786 H   0  0  0  0  0  0  0  0  0  0  0  0
    2.1852    0.4122    0.1383 H   0  0  0  0  0  0  0  0  0  0  0  0
    0.0000    0.0000    0.0000 C   0  0  0  0  0  0  0  0  0  0  0  0
    0.0137   -0.5558   -0.8163 H   0  0  0  0  0  0  0  0  0  0  0  0
    0.0136   -0.5561    0.8158 H   0  0  0  0  0  0  0  0  0  0  0  0
   -1.2286    0.8546   -0.0000 N   0  0  0  0  0  4  0  0  0  0  0  0
   -1.4316    1.1359    0.9359 H   0  0  0  0  0  0  0  0  0  0  0  0
   -1.0673    1.6602   -0.5674 H   0  0  0  0  0  0  0  0  0  0  0  0
   -1.9931    0.3294   -0.3687 H   0  0  0  0  0  0  0  0  0  0  0  0
    0.5104    1.9083    3.6012 C   0  0  0  0  0  0  0  0  0  0  0  0
    1.0857    2.3095    2.8550 H   0  0  0  0  0  0  0  0  0  0  0  0
    0.6256    0.8939    3.5271 H   0  0  0  0  0  0  0  0  0  0  0  0
    0.9131    2.2336    4.5605 H   0  0  0  0  0  0  0  0  0  0  0  0
   -1.2170    2.3719    3.3962 S   0  0  0  0  0  0  0  0  0  0  0  0
   -2.1085    1.1529    4.3528 C   0  0  0  0  0  0  0  0  0  0  0  0
   -3.0810    1.1836    4.1170 H   0  0  0  0  0  0  0  0  0  0  0  0
   -1.7491    0.2388    4.1538 H   0  0  0  0  0  0  0  0  0  0  0  0
   -1.9997    1.3450    5.3301 H   0  0  0  0  0  0  0  0  0  0  0  0
  1  5  1  0
  5  8  1  0
  1  2  1  0
  1  3  1  0
  1  4  1  0
  5  6  1  0
  5  7  1  0
  8  9  1  0
  8 10  1  0
  8 11  1  0
 12 16  1  0
 16 17  1  0
 12 13  1  0
 12 14  1  0
 12 15  1  0
 17 18  1  0
 17 19  1  0
 17 20  1  0
M  CHG  1   8   1
M  END
>  <PDB_ID>  (1543) 
pdb5dow

>  <RESIDUE_NAME>  (1543) 
LYS   MET

>  <FRAG_NAME>  (1543) 
ETAM   MSM

>  <FRAG_ATOM_NUM>  (1543) 
fragi: 11  fragj: 9

>  <atom.prop.CHAIN_ID>  (1543) 
A A A A A A A A A A A Z Z Z Z Z Z Z Z Z

>  <atom.prop.IS_HEAVY_ATOM>  (1543) 
1 0 0 0 1 0 0 1 0 0 0 1 0 0 0 1 1 0 0 0

>  <DIFUSE_FUNC_ATOM>  (1543) 
n/a

>  <FINAL_SINGLE_POINT_ENERGY>  (1543) 
0

>  <NONCOV_INTER_ENERGY_QM>  (1543) 
0

>  <FF_Energy>  (1543) 
-4.49

>  <QM_Energy>  (1543) 
-12.99

>  <source>  (1543) 
ETAM_MSM

>  <Index>  (1543) 
9833

$$$$
ETAM-pdb5dow-E-ALA-2:MSM-pdb5dow-E-MET-77
     RDKit          3D

 20 18  0  0  0  0  0  0  0  0999 V2000
    1.2337    0.8937   -0.0000 C   0  0  0  0  0  0  0  0  0  0  0  0
    1.7704    0.7212    0.8253 H   0  0  0  0  0  0  0  0  0  0  0  0
    1.7895    0.6945   -0.8059 H   0  0  0  0  0  0  0  0  0  0  0  0
    0.9516    1.8525   -0.0198 H   0  0  0  0  0  0  0  0  0  0  0  0
    0.0000    0.0000    0.0000 C   0  0  0  0  0  0  0  0  0  0  0  0
    0.0006   -0.5507   -0.8453 H   0  0  0  0  0  0  0  0  0  0  0  0
    0.0388   -0.6668    0.8613 H   0  0  0  0  0  0  0  0  0  0  0  0
   -1.2337    0.8350   -0.0000 N   0  0  0  0  0  4  0  0  0  0  0  0
   -2.0297    0.2437   -0.1016 H   0  0  0  0  0  0  0  0  0  0  0  0
   -1.2917    1.3329    0.8616 H   0  0  0  0  0  0  0  0  0  0  0  0
   -1.1927    1.4791   -0.7597 H   0  0  0  0  0  0  0  0  0  0  0  0
   -2.0806   -2.6892   -3.1030 C   0  0  0  0  0  0  0  0  0  0  0  0
   -1.8384   -1.7731   -3.5236 H   0  0  0  0  0  0  0  0  0  0  0  0
   -3.0985   -2.7808   -3.2790 H   0  0  0  0  0  0  0  0  0  0  0  0
   -1.5727   -3.4627   -3.6791 H   0  0  0  0  0  0  0  0  0  0  0  0
   -1.7260   -2.7088   -1.3543 S   0  0  0  0  0  0  0  0  0  0  0  0
   -2.6798   -4.1599   -0.9115 C   0  0  0  0  0  0  0  0  0  0  0  0
   -2.0603   -4.9052   -0.6606 H   0  0  0  0  0  0  0  0  0  0  0  0
   -3.2736   -3.9462   -0.1349 H   0  0  0  0  0  0  0  0  0  0  0  0
   -3.2408   -4.4428   -1.6909 H   0  0  0  0  0  0  0  0  0  0  0  0
  1  5  1  0
  5  8  1  0
  1  2  1  0
  1  3  1  0
  1  4  1  0
  5  6  1  0
  5  7  1  0
  8  9  1  0
  8 10  1  0
  8 11  1  0
 12 16  1  0
 16 17  1  0
 12 13  1  0
 12 14  1  0
 12 15  1  0
 17 18  1  0
 17 19  1  0
 17 20  1  0
M  CHG  1   8   1
M  END
>  <PDB_ID>  (1544) 
pdb5dow

>  <RESIDUE_NAME>  (1544) 
ALA   MET

>  <FRAG_NAME>  (1544) 
ETAM   MSM

>  <FRAG_ATOM_NUM>  (1544) 
fragi: 11  fragj: 9

>  <atom.prop.CHAIN_ID>  (1544) 
A A A A A A A A A A A Z Z Z Z Z Z Z Z Z

>  <atom.prop.IS_HEAVY_ATOM>  (1544) 
1 0 0 0 1 0 0 1 0 0 0 1 0 0 0 1 1 0 0 0

>  <DIFUSE_FUNC_ATOM>  (1544) 
n/a

>  <FINAL_SINGLE_POINT_ENERGY>  (1544) 
0

>  <NONCOV_INTER_ENERGY_QM>  (1544) 
0

>  <FF_Energy>  (1544) 
-4.59

>  <QM_Energy>  (1544) 
-10.96

>  <source>  (1544) 
ETAM_MSM

>  <Index>  (1544) 
9835

$$$$
ETAM-pdb6dtm-A-LYS-147:MSM-pdb6dtm-A-MET-270
     RDKit          3D

 20 18  0  0  0  0  0  0  0  0999 V2000
    1.2860    0.8839   -0.0000 C   0  0  0  0  0  0  0  0  0  0  0  0
    2.0595    0.2750   -0.1815 H   0  0  0  0  0  0  0  0  0  0  0  0
    1.3756    1.2696    0.9189 H   0  0  0  0  0  0  0  0  0  0  0  0
    1.2567    1.6831   -0.7406 H   0  0  0  0  0  0  0  0  0  0  0  0
    0.0000    0.0000    0.0000 C   0  0  0  0  0  0  0  0  0  0  0  0
    0.0241   -0.5872   -0.8165 H   0  0  0  0  0  0  0  0  0  0  0  0
    0.0245   -0.5870    0.8163 H   0  0  0  0  0  0  0  0  0  0  0  0
   -1.2860    0.7922   -0.0000 N   0  0  0  0  0  4  0  0  0  0  0  0
   -1.0840    1.7317    0.2633 H   0  0  0  0  0  0  0  0  0  0  0  0
   -1.6760    0.7689   -0.9161 H   0  0  0  0  0  0  0  0  0  0  0  0
   -1.9161    0.3810    0.6521 H   0  0  0  0  0  0  0  0  0  0  0  0
    4.0144   -1.4532    4.1060 C   0  0  0  0  0  0  0  0  0  0  0  0
    4.7512   -1.9298    4.6620 H   0  0  0  0  0  0  0  0  0  0  0  0
    3.4038   -2.2334    3.7920 H   0  0  0  0  0  0  0  0  0  0  0  0
    3.4357   -0.8265    4.7845 H   0  0  0  0  0  0  0  0  0  0  0  0
    4.7330   -0.6004    2.6954 S   0  0  0  0  0  0  0  0  0  0  0  0
    3.2615    0.1648    2.0241 C   0  0  0  0  0  0  0  0  0  0  0  0
    3.1082   -0.1611    1.0899 H   0  0  0  0  0  0  0  0  0  0  0  0
    2.4706   -0.0723    2.5908 H   0  0  0  0  0  0  0  0  0  0  0  0
    3.3743    1.1596    2.0131 H   0  0  0  0  0  0  0  0  0  0  0  0
  1  5  1  0
  5  8  1  0
  1  2  1  0
  1  3  1  0
  1  4  1  0
  5  6  1  0
  5  7  1  0
  8  9  1  0
  8 10  1  0
  8 11  1  0
 12 16  1  0
 16 17  1  0
 12 13  1  0
 12 14  1  0
 12 15  1  0
 17 18  1  0
 17 19  1  0
 17 20  1  0
M  CHG  1   8   1
M  END
>  <PDB_ID>  (1545) 
pdb6dtm

>  <RESIDUE_NAME>  (1545) 
LYS   MET

>  <FRAG_NAME>  (1545) 
ETAM   MSM

>  <FRAG_ATOM_NUM>  (1545) 
fragi: 11  fragj: 9

>  <atom.prop.CHAIN_ID>  (1545) 
A A A A A A A A A A A Z Z Z Z Z Z Z Z Z

>  <atom.prop.IS_HEAVY_ATOM>  (1545) 
1 0 0 0 1 0 0 1 0 0 0 1 0 0 0 1 1 0 0 0

>  <DIFUSE_FUNC_ATOM>  (1545) 
n/a

>  <FINAL_SINGLE_POINT_ENERGY>  (1545) 
0

>  <NONCOV_INTER_ENERGY_QM>  (1545) 
0

>  <FF_Energy>  (1545) 
13.47

>  <QM_Energy>  (1545) 
5.72

>  <source>  (1545) 
ETAM_MSM

>  <Index>  (1545) 
9838

$$$$
ETAM-pdb5dnk-A-LYS-488:MSM-pdb5dnk-A-MET-471
     RDKit          3D

 20 18  0  0  0  0  0  0  0  0999 V2000
    1.2430    0.8914   -0.0000 C   0  0  0  0  0  0  0  0  0  0  0  0
    1.3177    1.3285    0.8841 H   0  0  0  0  0  0  0  0  0  0  0  0
    1.1535    1.5579   -0.7242 H   0  0  0  0  0  0  0  0  0  0  0  0
    2.1399    0.2974   -0.1758 H   0  0  0  0  0  0  0  0  0  0  0  0
    0.0000    0.0000    0.0000 C   0  0  0  0  0  0  0  0  0  0  0  0
    0.0197   -0.5770   -0.8163 H   0  0  0  0  0  0  0  0  0  0  0  0
    0.0187   -0.5772    0.8166 H   0  0  0  0  0  0  0  0  0  0  0  0
   -1.2430    0.8148    0.0000 N   0  0  0  0  0  4  0  0  0  0  0  0
   -1.2004    1.4872    0.7390 H   0  0  0  0  0  0  0  0  0  0  0  0
   -1.3304    1.2877   -0.8765 H   0  0  0  0  0  0  0  0  0  0  0  0
   -2.0321    0.2169    0.1372 H   0  0  0  0  0  0  0  0  0  0  0  0
   -0.3859    5.7573    1.9083 C   0  0  0  0  0  0  0  0  0  0  0  0
   -1.4041    5.8532    2.0516 H   0  0  0  0  0  0  0  0  0  0  0  0
   -0.0747    6.7015    1.6287 H   0  0  0  0  0  0  0  0  0  0  0  0
    0.0638    5.5333    2.8756 H   0  0  0  0  0  0  0  0  0  0  0  0
   -0.0374    4.5474    0.5741 S   0  0  0  0  0  0  0  0  0  0  0  0
    1.6920    4.9181    0.2529 C   0  0  0  0  0  0  0  0  0  0  0  0
    1.9211    5.8075    0.6492 H   0  0  0  0  0  0  0  0  0  0  0  0
    2.2656    4.2110    0.6654 H   0  0  0  0  0  0  0  0  0  0  0  0
    1.8490    4.9416   -0.7348 H   0  0  0  0  0  0  0  0  0  0  0  0
  1  5  1  0
  5  8  1  0
  1  2  1  0
  1  3  1  0
  1  4  1  0
  5  6  1  0
  5  7  1  0
  8  9  1  0
  8 10  1  0
  8 11  1  0
 12 16  1  0
 16 17  1  0
 12 13  1  0
 12 14  1  0
 12 15  1  0
 17 18  1  0
 17 19  1  0
 17 20  1  0
M  CHG  1   8   1
M  END
>  <PDB_ID>  (1546) 
pdb5dnk

>  <RESIDUE_NAME>  (1546) 
LYS   MET

>  <FRAG_NAME>  (1546) 
ETAM   MSM

>  <FRAG_ATOM_NUM>  (1546) 
fragi: 11  fragj: 9

>  <atom.prop.CHAIN_ID>  (1546) 
A A A A A A A A A A A Z Z Z Z Z Z Z Z Z

>  <atom.prop.IS_HEAVY_ATOM>  (1546) 
1 0 0 0 1 0 0 1 0 0 0 1 0 0 0 1 1 0 0 0

>  <DIFUSE_FUNC_ATOM>  (1546) 
n/a

>  <FINAL_SINGLE_POINT_ENERGY>  (1546) 
0

>  <NONCOV_INTER_ENERGY_QM>  (1546) 
0

>  <FF_Energy>  (1546) 
-5.08

>  <QM_Energy>  (1546) 
-10.78

>  <source>  (1546) 
ETAM_MSM

>  <Index>  (1546) 
9843

$$$$
ETAM-pdb5dth-A-LYS-1413:MSM-pdb5dth-A-MET-1337
     RDKit          3D

 20 18  0  0  0  0  0  0  0  0999 V2000
    1.2617    0.8452    0.0000 C   0  0  0  0  0  0  0  0  0  0  0  0
    1.0324    1.7470   -0.3951 H   0  0  0  0  0  0  0  0  0  0  0  0
    1.9331    0.4030   -0.6126 H   0  0  0  0  0  0  0  0  0  0  0  0
    1.7123    0.9886    0.9820 H   0  0  0  0  0  0  0  0  0  0  0  0
    0.0000    0.0000    0.0000 C   0  0  0  0  0  0  0  0  0  0  0  0
    0.0030   -0.5950   -0.8162 H   0  0  0  0  0  0  0  0  0  0  0  0
    0.0033   -0.5953    0.8161 H   0  0  0  0  0  0  0  0  0  0  0  0
   -1.2617    0.8082   -0.0000 N   0  0  0  0  0  4  0  0  0  0  0  0
   -1.7445    0.6606   -0.8608 H   0  0  0  0  0  0  0  0  0  0  0  0
   -1.8350    0.5188    0.7634 H   0  0  0  0  0  0  0  0  0  0  0  0
   -1.0309    1.7746    0.0975 H   0  0  0  0  0  0  0  0  0  0  0  0
    1.8554   -2.3229   -1.8963 C   0  0  0  0  0  0  0  0  0  0  0  0
    1.2367   -2.6392   -1.1709 H   0  0  0  0  0  0  0  0  0  0  0  0
    2.6126   -1.8138   -1.4754 H   0  0  0  0  0  0  0  0  0  0  0  0
    2.2576   -3.1890   -2.4218 H   0  0  0  0  0  0  0  0  0  0  0  0
    0.9752   -1.2954   -3.0914 S   0  0  0  0  0  0  0  0  0  0  0  0
    2.3103   -0.2740   -3.4908 C   0  0  0  0  0  0  0  0  0  0  0  0
    2.3067   -0.0318   -4.4733 H   0  0  0  0  0  0  0  0  0  0  0  0
    2.2839    0.5888   -2.9626 H   0  0  0  0  0  0  0  0  0  0  0  0
    3.1928   -0.7276   -3.2905 H   0  0  0  0  0  0  0  0  0  0  0  0
  1  5  1  0
  5  8  1  0
  1  2  1  0
  1  3  1  0
  1  4  1  0
  5  6  1  0
  5  7  1  0
  8  9  1  0
  8 10  1  0
  8 11  1  0
 12 16  1  0
 16 17  1  0
 12 13  1  0
 12 14  1  0
 12 15  1  0
 17 18  1  0
 17 19  1  0
 17 20  1  0
M  CHG  1   8   1
M  END
>  <PDB_ID>  (1547) 
pdb5dth

>  <RESIDUE_NAME>  (1547) 
LYS   MET

>  <FRAG_NAME>  (1547) 
ETAM   MSM

>  <FRAG_ATOM_NUM>  (1547) 
fragi: 11  fragj: 9

>  <atom.prop.CHAIN_ID>  (1547) 
A A A A A A A A A A A Z Z Z Z Z Z Z Z Z

>  <atom.prop.IS_HEAVY_ATOM>  (1547) 
1 0 0 0 1 0 0 1 0 0 0 1 0 0 0 1 1 0 0 0

>  <DIFUSE_FUNC_ATOM>  (1547) 
n/a

>  <FINAL_SINGLE_POINT_ENERGY>  (1547) 
0

>  <NONCOV_INTER_ENERGY_QM>  (1547) 
0

>  <FF_Energy>  (1547) 
-1.66

>  <QM_Energy>  (1547) 
-7.57

>  <source>  (1547) 
ETAM_MSM

>  <Index>  (1547) 
9847

$$$$
ETAM-pdb5duy-A-LYS-55:MSM-pdb5duy-A-MET-1
     RDKit          3D

 20 18  0  0  0  0  0  0  0  0999 V2000
    1.2685    0.8400    0.0000 C   0  0  0  0  0  0  0  0  0  0  0  0
    1.3550    1.2938    0.8730 H   0  0  0  0  0  0  0  0  0  0  0  0
    1.2248    1.4889   -0.7423 H   0  0  0  0  0  0  0  0  0  0  0  0
    2.1437    0.2072   -0.1467 H   0  0  0  0  0  0  0  0  0  0  0  0
    0.0000    0.0000    0.0000 C   0  0  0  0  0  0  0  0  0  0  0  0
   -0.0291   -0.5694   -0.8163 H   0  0  0  0  0  0  0  0  0  0  0  0
   -0.0302   -0.5703    0.8168 H   0  0  0  0  0  0  0  0  0  0  0  0
   -1.2685    0.8872   -0.0000 N   0  0  0  0  0  4  0  0  0  0  0  0
   -2.0312    0.3238   -0.2855 H   0  0  0  0  0  0  0  0  0  0  0  0
   -1.4004    1.2250    0.9208 H   0  0  0  0  0  0  0  0  0  0  0  0
   -1.1163    1.6316   -0.6350 H   0  0  0  0  0  0  0  0  0  0  0  0
   -5.1510   -3.0974   -0.3883 C   0  0  0  0  0  0  0  0  0  0  0  0
   -5.8299   -2.5485    0.1735 H   0  0  0  0  0  0  0  0  0  0  0  0
   -4.5461   -3.5462    0.3257 H   0  0  0  0  0  0  0  0  0  0  0  0
   -5.6982   -3.8802   -0.9135 H   0  0  0  0  0  0  0  0  0  0  0  0
   -4.1591   -1.9828   -1.4396 S   0  0  0  0  0  0  0  0  0  0  0  0
   -3.1274   -1.2628   -0.1484 C   0  0  0  0  0  0  0  0  0  0  0  0
   -2.9417   -1.9538    0.5498 H   0  0  0  0  0  0  0  0  0  0  0  0
   -2.2669   -0.9504   -0.5490 H   0  0  0  0  0  0  0  0  0  0  0  0
   -3.6062   -0.4886    0.2638 H   0  0  0  0  0  0  0  0  0  0  0  0
  1  5  1  0
  5  8  1  0
  1  2  1  0
  1  3  1  0
  1  4  1  0
  5  6  1  0
  5  7  1  0
  8  9  1  0
  8 10  1  0
  8 11  1  0
 12 16  1  0
 16 17  1  0
 12 13  1  0
 12 14  1  0
 12 15  1  0
 17 18  1  0
 17 19  1  0
 17 20  1  0
M  CHG  1   8   1
M  END
>  <PDB_ID>  (1548) 
pdb5duy

>  <RESIDUE_NAME>  (1548) 
LYS   MET

>  <FRAG_NAME>  (1548) 
ETAM   MSM

>  <FRAG_ATOM_NUM>  (1548) 
fragi: 11  fragj: 9

>  <atom.prop.CHAIN_ID>  (1548) 
A A A A A A A A A A A Z Z Z Z Z Z Z Z Z

>  <atom.prop.IS_HEAVY_ATOM>  (1548) 
1 0 0 0 1 0 0 1 0 0 0 1 0 0 0 1 1 0 0 0

>  <DIFUSE_FUNC_ATOM>  (1548) 
n/a

>  <FINAL_SINGLE_POINT_ENERGY>  (1548) 
0

>  <NONCOV_INTER_ENERGY_QM>  (1548) 
0

>  <FF_Energy>  (1548) 
12.16

>  <QM_Energy>  (1548) 
6.93

>  <source>  (1548) 
ETAM_MSM

>  <Index>  (1548) 
9857

$$$$
ETAM-pdb6e1q-A-LYS-225:MSM-pdb6e1q-A-MET-542
     RDKit          3D

 20 18  0  0  0  0  0  0  0  0999 V2000
    1.2497    0.8560   -0.0000 C   0  0  0  0  0  0  0  0  0  0  0  0
    1.2139    1.4683    0.7869 H   0  0  0  0  0  0  0  0  0  0  0  0
    1.2692    1.3873   -0.8437 H   0  0  0  0  0  0  0  0  0  0  0  0
    2.1520    0.2477    0.0615 H   0  0  0  0  0  0  0  0  0  0  0  0
    0.0000    0.0000    0.0000 C   0  0  0  0  0  0  0  0  0  0  0  0
   -0.0001   -0.5847   -0.8158 H   0  0  0  0  0  0  0  0  0  0  0  0
   -0.0007   -0.5841    0.8166 H   0  0  0  0  0  0  0  0  0  0  0  0
   -1.2497    0.8288    0.0000 N   0  0  0  0  0  4  0  0  0  0  0  0
   -2.0374    0.2317    0.1393 H   0  0  0  0  0  0  0  0  0  0  0  0
   -1.1967    1.4979    0.7379 H   0  0  0  0  0  0  0  0  0  0  0  0
   -1.3303    1.2966   -0.8775 H   0  0  0  0  0  0  0  0  0  0  0  0
   -1.1033    1.6806   -5.2171 C   0  0  0  0  0  0  0  0  0  0  0  0
   -1.8352    1.3186   -4.5876 H   0  0  0  0  0  0  0  0  0  0  0  0
   -1.1638    1.0865   -6.0578 H   0  0  0  0  0  0  0  0  0  0  0  0
   -1.3704    2.6991   -5.4990 H   0  0  0  0  0  0  0  0  0  0  0  0
    0.5057    1.5649   -4.4651 S   0  0  0  0  0  0  0  0  0  0  0  0
   -0.1530    1.7453   -2.8382 C   0  0  0  0  0  0  0  0  0  0  0  0
    0.3631    1.1776   -2.1881 H   0  0  0  0  0  0  0  0  0  0  0  0
   -0.0956    2.7053   -2.5430 H   0  0  0  0  0  0  0  0  0  0  0  0
   -1.1170    1.4600   -2.8183 H   0  0  0  0  0  0  0  0  0  0  0  0
  1  5  1  0
  5  8  1  0
  1  2  1  0
  1  3  1  0
  1  4  1  0
  5  6  1  0
  5  7  1  0
  8  9  1  0
  8 10  1  0
  8 11  1  0
 12 16  1  0
 16 17  1  0
 12 13  1  0
 12 14  1  0
 12 15  1  0
 17 18  1  0
 17 19  1  0
 17 20  1  0
M  CHG  1   8   1
M  END
>  <PDB_ID>  (1549) 
pdb6e1q

>  <RESIDUE_NAME>  (1549) 
LYS   MET

>  <FRAG_NAME>  (1549) 
ETAM   MSM

>  <FRAG_ATOM_NUM>  (1549) 
fragi: 11  fragj: 9

>  <atom.prop.CHAIN_ID>  (1549) 
A A A A A A A A A A A Z Z Z Z Z Z Z Z Z

>  <atom.prop.IS_HEAVY_ATOM>  (1549) 
1 0 0 0 1 0 0 1 0 0 0 1 0 0 0 1 1 0 0 0

>  <DIFUSE_FUNC_ATOM>  (1549) 
n/a

>  <FINAL_SINGLE_POINT_ENERGY>  (1549) 
0

>  <NONCOV_INTER_ENERGY_QM>  (1549) 
0

>  <FF_Energy>  (1549) 
15.17

>  <QM_Energy>  (1549) 
2.96

>  <source>  (1549) 
ETAM_MSM

>  <Index>  (1549) 
9868

$$$$
ETAM-pdb6e0v-A-LYS-315:MSM-pdb6e0v-A-MET-296
     RDKit          3D

 20 18  0  0  0  0  0  0  0  0999 V2000
    1.2646    0.8338    0.0000 C   0  0  0  0  0  0  0  0  0  0  0  0
    1.2091    1.4767    0.7242 H   0  0  0  0  0  0  0  0  0  0  0  0
    1.3273    1.2979   -0.8498 H   0  0  0  0  0  0  0  0  0  0  0  0
    2.1449    0.2061    0.1382 H   0  0  0  0  0  0  0  0  0  0  0  0
    0.0000    0.0000    0.0000 C   0  0  0  0  0  0  0  0  0  0  0  0
   -0.0160   -0.5560   -0.7942 H   0  0  0  0  0  0  0  0  0  0  0  0
   -0.0167   -0.5549    0.7954 H   0  0  0  0  0  0  0  0  0  0  0  0
   -1.2646    0.8758   -0.0000 N   0  0  0  0  0  4  0  0  0  0  0  0
   -1.9887    0.3633   -0.0713 H   0  0  0  0  0  0  0  0  0  0  0  0
   -1.3131    1.3414    0.7572 H   0  0  0  0  0  0  0  0  0  0  0  0
   -1.2426    1.4418   -0.6859 H   0  0  0  0  0  0  0  0  0  0  0  0
    0.7834   -1.3209   -4.7130 C   0  0  0  0  0  0  0  0  0  0  0  0
    0.5765   -2.2569   -4.5622 H   0  0  0  0  0  0  0  0  0  0  0  0
    1.7099   -1.1454   -4.4829 H   0  0  0  0  0  0  0  0  0  0  0  0
    0.6277   -1.0870   -5.7662 H   0  0  0  0  0  0  0  0  0  0  0  0
   -0.2571   -0.3382   -3.6234 S   0  0  0  0  0  0  0  0  0  0  0  0
   -1.7946   -1.2071   -3.7998 C   0  0  0  0  0  0  0  0  0  0  0  0
   -2.4344   -0.8485   -3.1650 H   0  0  0  0  0  0  0  0  0  0  0  0
   -2.1227   -1.0879   -4.7047 H   0  0  0  0  0  0  0  0  0  0  0  0
   -1.6466   -2.1497   -3.6223 H   0  0  0  0  0  0  0  0  0  0  0  0
  1  5  1  0
  5  8  1  0
  1  2  1  0
  1  3  1  0
  1  4  1  0
  5  6  1  0
  5  7  1  0
  8  9  1  0
  8 10  1  0
  8 11  1  0
 12 16  1  0
 16 17  1  0
 12 13  1  0
 12 14  1  0
 12 15  1  0
 17 18  1  0
 17 19  1  0
 17 20  1  0
M  CHG  1   8   1
M  END
>  <PDB_ID>  (1550) 
pdb6e0v

>  <RESIDUE_NAME>  (1550) 
LYS   MET

>  <FRAG_NAME>  (1550) 
ETAM   MSM

>  <FRAG_ATOM_NUM>  (1550) 
fragi: 11  fragj: 9

>  <atom.prop.CHAIN_ID>  (1550) 
A A A A A A A A A A A Z Z Z Z Z Z Z Z Z

>  <atom.prop.IS_HEAVY_ATOM>  (1550) 
1 0 0 0 1 0 0 1 0 0 0 1 0 0 0 1 1 0 0 0

>  <DIFUSE_FUNC_ATOM>  (1550) 
n/a

>  <FINAL_SINGLE_POINT_ENERGY>  (1550) 
0

>  <NONCOV_INTER_ENERGY_QM>  (1550) 
0

>  <FF_Energy>  (1550) 
-4.18

>  <QM_Energy>  (1550) 
-9.2

>  <source>  (1550) 
ETAM_MSM

>  <Index>  (1550) 
9869

$$$$
ETAM-pdb6e31-A-LYS-174:MSM-pdb6e31-A-MET-68
     RDKit          3D

 20 18  0  0  0  0  0  0  0  0999 V2000
    1.2318    0.8773   -0.0000 C   0  0  0  0  0  0  0  0  0  0  0  0
    1.2154    1.4529    0.8173 H   0  0  0  0  0  0  0  0  0  0  0  0
    1.2154    1.4539   -0.8154 H   0  0  0  0  0  0  0  0  0  0  0  0
    2.1553    0.2982    0.0003 H   0  0  0  0  0  0  0  0  0  0  0  0
    0.0000    0.0000    0.0000 C   0  0  0  0  0  0  0  0  0  0  0  0
    0.0083   -0.5769   -0.8162 H   0  0  0  0  0  0  0  0  0  0  0  0
    0.0072   -0.5775    0.8158 H   0  0  0  0  0  0  0  0  0  0  0  0
   -1.2318    0.8298    0.0000 N   0  0  0  0  0  4  0  0  0  0  0  0
   -1.2628    1.3805    0.8348 H   0  0  0  0  0  0  0  0  0  0  0  0
   -1.2274    1.4330   -0.7971 H   0  0  0  0  0  0  0  0  0  0  0  0
   -2.0353    0.2347   -0.0368 H   0  0  0  0  0  0  0  0  0  0  0  0
   -4.5825    2.6586    2.7451 C   0  0  0  0  0  0  0  0  0  0  0  0
   -4.5904    3.5059    3.3365 H   0  0  0  0  0  0  0  0  0  0  0  0
   -5.3357    2.0675    3.1344 H   0  0  0  0  0  0  0  0  0  0  0  0
   -4.8662    2.9492    1.7336 H   0  0  0  0  0  0  0  0  0  0  0  0
   -2.9884    1.8152    2.8625 S   0  0  0  0  0  0  0  0  0  0  0  0
   -3.3492    0.2595    2.0457 C   0  0  0  0  0  0  0  0  0  0  0  0
   -3.7972    0.4382    1.1691 H   0  0  0  0  0  0  0  0  0  0  0  0
   -2.4972   -0.2413    1.8890 H   0  0  0  0  0  0  0  0  0  0  0  0
   -3.9556   -0.2882    2.6228 H   0  0  0  0  0  0  0  0  0  0  0  0
  1  5  1  0
  5  8  1  0
  1  2  1  0
  1  3  1  0
  1  4  1  0
  5  6  1  0
  5  7  1  0
  8  9  1  0
  8 10  1  0
  8 11  1  0
 12 16  1  0
 16 17  1  0
 12 13  1  0
 12 14  1  0
 12 15  1  0
 17 18  1  0
 17 19  1  0
 17 20  1  0
M  CHG  1   8   1
M  END
>  <PDB_ID>  (1551) 
pdb6e31

>  <RESIDUE_NAME>  (1551) 
LYS   MET

>  <FRAG_NAME>  (1551) 
ETAM   MSM

>  <FRAG_ATOM_NUM>  (1551) 
fragi: 11  fragj: 9

>  <atom.prop.CHAIN_ID>  (1551) 
A A A A A A A A A A A Z Z Z Z Z Z Z Z Z

>  <atom.prop.IS_HEAVY_ATOM>  (1551) 
1 0 0 0 1 0 0 1 0 0 0 1 0 0 0 1 1 0 0 0

>  <DIFUSE_FUNC_ATOM>  (1551) 
n/a

>  <FINAL_SINGLE_POINT_ENERGY>  (1551) 
0

>  <NONCOV_INTER_ENERGY_QM>  (1551) 
0

>  <FF_Energy>  (1551) 
-0.62

>  <QM_Energy>  (1551) 
-7.99

>  <source>  (1551) 
ETAM_MSM

>  <Index>  (1551) 
9873

$$$$
ETAM-pdb5dzw-A-LYS-296:MSM-pdb5dzw-A-MET-249
     RDKit          3D

 20 18  0  0  0  0  0  0  0  0999 V2000
    1.2321    0.8798    0.0000 C   0  0  0  0  0  0  0  0  0  0  0  0
    1.2139    1.4557    0.8167 H   0  0  0  0  0  0  0  0  0  0  0  0
    1.2133    1.4558   -0.8167 H   0  0  0  0  0  0  0  0  0  0  0  0
    2.1563    0.3020    0.0006 H   0  0  0  0  0  0  0  0  0  0  0  0
    0.0000    0.0000    0.0000 C   0  0  0  0  0  0  0  0  0  0  0  0
    0.0090   -0.5769   -0.8162 H   0  0  0  0  0  0  0  0  0  0  0  0
    0.0090   -0.5766    0.8165 H   0  0  0  0  0  0  0  0  0  0  0  0
   -1.2321    0.8279    0.0000 N   0  0  0  0  0  4  0  0  0  0  0  0
   -1.0200    1.7419   -0.3457 H   0  0  0  0  0  0  0  0  0  0  0  0
   -1.9215    0.4014   -0.5872 H   0  0  0  0  0  0  0  0  0  0  0  0
   -1.5875    0.8989    0.9323 H   0  0  0  0  0  0  0  0  0  0  0  0
   -0.3308   -2.8188   -0.7289 C   0  0  0  0  0  0  0  0  0  0  0  0
   -0.1814   -2.3636    0.1776 H   0  0  0  0  0  0  0  0  0  0  0  0
    0.3577   -2.3984   -1.3630 H   0  0  0  0  0  0  0  0  0  0  0  0
   -0.1033   -3.8797   -0.6245 H   0  0  0  0  0  0  0  0  0  0  0  0
   -2.0073   -2.5245   -1.3221 S   0  0  0  0  0  0  0  0  0  0  0  0
   -1.8796   -3.1448   -2.9974 C   0  0  0  0  0  0  0  0  0  0  0  0
   -1.4850   -2.4391   -3.5880 H   0  0  0  0  0  0  0  0  0  0  0  0
   -1.2920   -3.9560   -3.0117 H   0  0  0  0  0  0  0  0  0  0  0  0
   -2.7904   -3.3890   -3.3356 H   0  0  0  0  0  0  0  0  0  0  0  0
  1  5  1  0
  5  8  1  0
  1  2  1  0
  1  3  1  0
  1  4  1  0
  5  6  1  0
  5  7  1  0
  8  9  1  0
  8 10  1  0
  8 11  1  0
 12 16  1  0
 16 17  1  0
 12 13  1  0
 12 14  1  0
 12 15  1  0
 17 18  1  0
 17 19  1  0
 17 20  1  0
M  CHG  1   8   1
M  END
>  <PDB_ID>  (1552) 
pdb5dzw

>  <RESIDUE_NAME>  (1552) 
LYS   MET

>  <FRAG_NAME>  (1552) 
ETAM   MSM

>  <FRAG_ATOM_NUM>  (1552) 
fragi: 11  fragj: 9

>  <atom.prop.CHAIN_ID>  (1552) 
A A A A A A A A A A A Z Z Z Z Z Z Z Z Z

>  <atom.prop.IS_HEAVY_ATOM>  (1552) 
1 0 0 0 1 0 0 1 0 0 0 1 0 0 0 1 1 0 0 0

>  <DIFUSE_FUNC_ATOM>  (1552) 
n/a

>  <FINAL_SINGLE_POINT_ENERGY>  (1552) 
0

>  <NONCOV_INTER_ENERGY_QM>  (1552) 
0

>  <FF_Energy>  (1552) 
8.41

>  <QM_Energy>  (1552) 
-5.38

>  <source>  (1552) 
ETAM_MSM

>  <Index>  (1552) 
9876

$$$$
ETAM-pdb6e55-E-LYS-62:MSM-pdb6e55-E-MET-1
     RDKit          3D

 20 18  0  0  0  0  0  0  0  0999 V2000
    1.2383    0.8731    0.0000 C   0  0  0  0  0  0  0  0  0  0  0  0
    1.1673    1.5274    0.7635 H   0  0  0  0  0  0  0  0  0  0  0  0
    1.2600    1.3960   -0.8616 H   0  0  0  0  0  0  0  0  0  0  0  0
    2.1762    0.3264    0.0984 H   0  0  0  0  0  0  0  0  0  0  0  0
    0.0000    0.0000    0.0000 C   0  0  0  0  0  0  0  0  0  0  0  0
    0.0120   -0.5823   -0.8163 H   0  0  0  0  0  0  0  0  0  0  0  0
    0.0115   -0.5829    0.8164 H   0  0  0  0  0  0  0  0  0  0  0  0
   -1.2383    0.8167   -0.0000 N   0  0  0  0  0  4  0  0  0  0  0  0
   -1.5429    0.9625    0.9423 H   0  0  0  0  0  0  0  0  0  0  0  0
   -1.0556    1.7013   -0.4306 H   0  0  0  0  0  0  0  0  0  0  0  0
   -1.9537    0.3390   -0.5115 H   0  0  0  0  0  0  0  0  0  0  0  0
   -0.5069    1.1132    3.4898 C   0  0  0  0  0  0  0  0  0  0  0  0
    0.0815    1.2061    2.6542 H   0  0  0  0  0  0  0  0  0  0  0  0
    0.1232    1.2689    4.2848 H   0  0  0  0  0  0  0  0  0  0  0  0
   -1.2561    1.9048    3.4777 H   0  0  0  0  0  0  0  0  0  0  0  0
   -1.2310   -0.5478    3.5722 S   0  0  0  0  0  0  0  0  0  0  0  0
   -1.9296   -0.5299    5.2228 C   0  0  0  0  0  0  0  0  0  0  0  0
   -2.7274   -1.1328    5.2553 H   0  0  0  0  0  0  0  0  0  0  0  0
   -1.2453   -0.8489    5.8800 H   0  0  0  0  0  0  0  0  0  0  0  0
   -2.2080    0.4015    5.4593 H   0  0  0  0  0  0  0  0  0  0  0  0
  1  5  1  0
  5  8  1  0
  1  2  1  0
  1  3  1  0
  1  4  1  0
  5  6  1  0
  5  7  1  0
  8  9  1  0
  8 10  1  0
  8 11  1  0
 12 16  1  0
 16 17  1  0
 12 13  1  0
 12 14  1  0
 12 15  1  0
 17 18  1  0
 17 19  1  0
 17 20  1  0
M  CHG  1   8   1
M  END
>  <PDB_ID>  (1553) 
pdb6e55

>  <RESIDUE_NAME>  (1553) 
LYS   MET

>  <FRAG_NAME>  (1553) 
ETAM   MSM

>  <FRAG_ATOM_NUM>  (1553) 
fragi: 11  fragj: 9

>  <atom.prop.CHAIN_ID>  (1553) 
A A A A A A A A A A A Z Z Z Z Z Z Z Z Z

>  <atom.prop.IS_HEAVY_ATOM>  (1553) 
1 0 0 0 1 0 0 1 0 0 0 1 0 0 0 1 1 0 0 0

>  <DIFUSE_FUNC_ATOM>  (1553) 
n/a

>  <FINAL_SINGLE_POINT_ENERGY>  (1553) 
0

>  <NONCOV_INTER_ENERGY_QM>  (1553) 
0

>  <FF_Energy>  (1553) 
-3.59

>  <QM_Energy>  (1553) 
-8.77

>  <source>  (1553) 
ETAM_MSM

>  <Index>  (1553) 
9881

$$$$
ETAM-pdb5e37-C-LYS-97:MSM-pdb5e37-C-MET-28
     RDKit          3D

 20 18  0  0  0  0  0  0  0  0999 V2000
    1.2074    0.8988   -0.0000 C   0  0  0  0  0  0  0  0  0  0  0  0
    1.2587    1.3603    0.8882 H   0  0  0  0  0  0  0  0  0  0  0  0
    1.0910    1.5840   -0.7213 H   0  0  0  0  0  0  0  0  0  0  0  0
    2.1293    0.3434   -0.1723 H   0  0  0  0  0  0  0  0  0  0  0  0
    0.0000    0.0000    0.0000 C   0  0  0  0  0  0  0  0  0  0  0  0
   -0.0005   -0.5547   -0.8163 H   0  0  0  0  0  0  0  0  0  0  0  0
   -0.0015   -0.5554    0.8164 H   0  0  0  0  0  0  0  0  0  0  0  0
   -1.2074    0.8751   -0.0000 N   0  0  0  0  0  4  0  0  0  0  0  0
   -1.9758    0.3775    0.4002 H   0  0  0  0  0  0  0  0  0  0  0  0
   -1.0203    1.6955    0.5395 H   0  0  0  0  0  0  0  0  0  0  0  0
   -1.4273    1.1336   -0.9400 H   0  0  0  0  0  0  0  0  0  0  0  0
   -1.3298    5.0912   -2.7596 C   0  0  0  0  0  0  0  0  0  0  0  0
   -2.3521    5.0743   -2.6953 H   0  0  0  0  0  0  0  0  0  0  0  0
   -1.1101    4.8438   -3.7296 H   0  0  0  0  0  0  0  0  0  0  0  0
   -0.9827    6.1064   -2.5674 H   0  0  0  0  0  0  0  0  0  0  0  0
   -0.6049    3.8864   -1.6198 S   0  0  0  0  0  0  0  0  0  0  0  0
   -0.8866    4.6226    0.0156 C   0  0  0  0  0  0  0  0  0  0  0  0
   -0.0055    4.7902    0.4513 H   0  0  0  0  0  0  0  0  0  0  0  0
   -1.3794    5.4817   -0.0972 H   0  0  0  0  0  0  0  0  0  0  0  0
   -1.4252    3.9895    0.5669 H   0  0  0  0  0  0  0  0  0  0  0  0
  1  5  1  0
  5  8  1  0
  1  2  1  0
  1  3  1  0
  1  4  1  0
  5  6  1  0
  5  7  1  0
  8  9  1  0
  8 10  1  0
  8 11  1  0
 12 16  1  0
 16 17  1  0
 12 13  1  0
 12 14  1  0
 12 15  1  0
 17 18  1  0
 17 19  1  0
 17 20  1  0
M  CHG  1   8   1
M  END
>  <PDB_ID>  (1554) 
pdb5e37

>  <RESIDUE_NAME>  (1554) 
LYS   MET

>  <FRAG_NAME>  (1554) 
ETAM   MSM

>  <FRAG_ATOM_NUM>  (1554) 
fragi: 11  fragj: 9

>  <atom.prop.CHAIN_ID>  (1554) 
A A A A A A A A A A A Z Z Z Z Z Z Z Z Z

>  <atom.prop.IS_HEAVY_ATOM>  (1554) 
1 0 0 0 1 0 0 1 0 0 0 1 0 0 0 1 1 0 0 0

>  <DIFUSE_FUNC_ATOM>  (1554) 
n/a

>  <FINAL_SINGLE_POINT_ENERGY>  (1554) 
0

>  <NONCOV_INTER_ENERGY_QM>  (1554) 
0

>  <FF_Energy>  (1554) 
-4.83

>  <QM_Energy>  (1554) 
-11.51

>  <source>  (1554) 
ETAM_MSM

>  <Index>  (1554) 
9885

$$$$
ETAM-pdb6ecb-A-LYS-2531:MSM-pdb6ecb-A-MET-2517
     RDKit          3D

 20 18  0  0  0  0  0  0  0  0999 V2000
    1.2344    0.8645    0.0000 C   0  0  0  0  0  0  0  0  0  0  0  0
    1.0772    1.6162    0.5925 H   0  0  0  0  0  0  0  0  0  0  0  0
    1.3817    1.1813   -0.9055 H   0  0  0  0  0  0  0  0  0  0  0  0
    2.1181    0.3225    0.3367 H   0  0  0  0  0  0  0  0  0  0  0  0
    0.0000    0.0000    0.0000 C   0  0  0  0  0  0  0  0  0  0  0  0
   -0.0048   -0.5559   -0.7954 H   0  0  0  0  0  0  0  0  0  0  0  0
   -0.0051   -0.5565    0.7938 H   0  0  0  0  0  0  0  0  0  0  0  0
   -1.2344    0.8331   -0.0000 N   0  0  0  0  0  4  0  0  0  0  0  0
   -1.2362    1.3747   -0.7066 H   0  0  0  0  0  0  0  0  0  0  0  0
   -1.9538    0.3112   -0.0342 H   0  0  0  0  0  0  0  0  0  0  0  0
   -1.2684    1.3254    0.7405 H   0  0  0  0  0  0  0  0  0  0  0  0
   -1.8772   -3.6573    0.4997 C   0  0  0  0  0  0  0  0  0  0  0  0
   -0.9214   -3.6416    0.3364 H   0  0  0  0  0  0  0  0  0  0  0  0
   -2.3550   -3.7595   -0.3377 H   0  0  0  0  0  0  0  0  0  0  0  0
   -2.1020   -4.5189    1.1284 H   0  0  0  0  0  0  0  0  0  0  0  0
   -2.3329   -2.0332    1.1857 S   0  0  0  0  0  0  0  0  0  0  0  0
   -4.0469   -2.2886    1.5952 C   0  0  0  0  0  0  0  0  0  0  0  0
   -4.3842   -1.5002    2.0477 H   0  0  0  0  0  0  0  0  0  0  0  0
   -4.5474   -2.4412    0.7784 H   0  0  0  0  0  0  0  0  0  0  0  0
   -4.1208   -3.0609    2.1775 H   0  0  0  0  0  0  0  0  0  0  0  0
  1  5  1  0
  5  8  1  0
  1  2  1  0
  1  3  1  0
  1  4  1  0
  5  6  1  0
  5  7  1  0
  8  9  1  0
  8 10  1  0
  8 11  1  0
 12 16  1  0
 16 17  1  0
 12 13  1  0
 12 14  1  0
 12 15  1  0
 17 18  1  0
 17 19  1  0
 17 20  1  0
M  CHG  1   8   1
M  END
>  <PDB_ID>  (1555) 
pdb6ecb

>  <RESIDUE_NAME>  (1555) 
LYS   MET

>  <FRAG_NAME>  (1555) 
ETAM   MSM

>  <FRAG_ATOM_NUM>  (1555) 
fragi: 11  fragj: 9

>  <atom.prop.CHAIN_ID>  (1555) 
A A A A A A A A A A A Z Z Z Z Z Z Z Z Z

>  <atom.prop.IS_HEAVY_ATOM>  (1555) 
1 0 0 0 1 0 0 1 0 0 0 1 0 0 0 1 1 0 0 0

>  <DIFUSE_FUNC_ATOM>  (1555) 
n/a

>  <FINAL_SINGLE_POINT_ENERGY>  (1555) 
0

>  <NONCOV_INTER_ENERGY_QM>  (1555) 
0

>  <FF_Energy>  (1555) 
-4.48

>  <QM_Energy>  (1555) 
-14.15

>  <source>  (1555) 
ETAM_MSM

>  <Index>  (1555) 
9899

$$$$
ETAM-pdb5do8-C-LYS-189:MSM-pdb5do8-C-MET-79
     RDKit          3D

 20 18  0  0  0  0  0  0  0  0999 V2000
    1.2580    0.8563    0.0000 C   0  0  0  0  0  0  0  0  0  0  0  0
    1.2340    1.4540   -0.8001 H   0  0  0  0  0  0  0  0  0  0  0  0
    2.0516    0.2517   -0.0567 H   0  0  0  0  0  0  0  0  0  0  0  0
    1.3449    1.4712    0.8958 H   0  0  0  0  0  0  0  0  0  0  0  0
    0.0000    0.0000    0.0000 C   0  0  0  0  0  0  0  0  0  0  0  0
    0.0122   -0.5954   -0.8160 H   0  0  0  0  0  0  0  0  0  0  0  0
    0.0121   -0.5949    0.8161 H   0  0  0  0  0  0  0  0  0  0  0  0
   -1.2580    0.7970   -0.0000 N   0  0  0  0  0  4  0  0  0  0  0  0
   -1.4565    1.1020   -0.9310 H   0  0  0  0  0  0  0  0  0  0  0  0
   -2.0092    0.2290    0.3342 H   0  0  0  0  0  0  0  0  0  0  0  0
   -1.1465    1.5910    0.5963 H   0  0  0  0  0  0  0  0  0  0  0  0
   -3.2159   -0.2300   -3.3145 C   0  0  0  0  0  0  0  0  0  0  0  0
   -3.0110    0.7496   -3.5688 H   0  0  0  0  0  0  0  0  0  0  0  0
   -3.7288   -0.1637   -2.4210 H   0  0  0  0  0  0  0  0  0  0  0  0
   -3.8893   -0.6431   -4.0654 H   0  0  0  0  0  0  0  0  0  0  0  0
   -1.6980   -1.1656   -3.1091 S   0  0  0  0  0  0  0  0  0  0  0  0
   -0.8543   -0.7800   -4.6474 C   0  0  0  0  0  0  0  0  0  0  0  0
   -0.9259    0.2007   -4.8295 H   0  0  0  0  0  0  0  0  0  0  0  0
    0.1096   -1.0357   -4.5715 H   0  0  0  0  0  0  0  0  0  0  0  0
   -1.2770   -1.2903   -5.3965 H   0  0  0  0  0  0  0  0  0  0  0  0
  1  5  1  0
  5  8  1  0
  1  2  1  0
  1  3  1  0
  1  4  1  0
  5  6  1  0
  5  7  1  0
  8  9  1  0
  8 10  1  0
  8 11  1  0
 12 16  1  0
 16 17  1  0
 12 13  1  0
 12 14  1  0
 12 15  1  0
 17 18  1  0
 17 19  1  0
 17 20  1  0
M  CHG  1   8   1
M  END
>  <PDB_ID>  (1556) 
pdb5do8

>  <RESIDUE_NAME>  (1556) 
LYS   MET

>  <FRAG_NAME>  (1556) 
ETAM   MSM

>  <FRAG_ATOM_NUM>  (1556) 
fragi: 11  fragj: 9

>  <atom.prop.CHAIN_ID>  (1556) 
A A A A A A A A A A A Z Z Z Z Z Z Z Z Z

>  <atom.prop.IS_HEAVY_ATOM>  (1556) 
1 0 0 0 1 0 0 1 0 0 0 1 0 0 0 1 1 0 0 0

>  <DIFUSE_FUNC_ATOM>  (1556) 
n/a

>  <FINAL_SINGLE_POINT_ENERGY>  (1556) 
0

>  <NONCOV_INTER_ENERGY_QM>  (1556) 
0

>  <FF_Energy>  (1556) 
-4.22

>  <QM_Energy>  (1556) 
-10.5

>  <source>  (1556) 
ETAM_MSM

>  <Index>  (1556) 
9900

$$$$
ETAM-pdb6ef6-A-LYS-194:MSM-pdb6ef6-A-MET-282
     RDKit          3D

 20 18  0  0  0  0  0  0  0  0999 V2000
    1.2652    0.8482    0.0000 C   0  0  0  0  0  0  0  0  0  0  0  0
    1.2516    1.3923   -0.8040 H   0  0  0  0  0  0  0  0  0  0  0  0
    2.0219    0.2421   -0.0324 H   0  0  0  0  0  0  0  0  0  0  0  0
    1.3862    1.5064    0.8604 H   0  0  0  0  0  0  0  0  0  0  0  0
    0.0000    0.0000    0.0000 C   0  0  0  0  0  0  0  0  0  0  0  0
   -0.0007   -0.5573   -0.7946 H   0  0  0  0  0  0  0  0  0  0  0  0
   -0.0004   -0.5587    0.7929 H   0  0  0  0  0  0  0  0  0  0  0  0
   -1.2652    0.7934   -0.0000 N   0  0  0  0  0  4  0  0  0  0  0  0
   -1.9669    0.2462    0.0007 H   0  0  0  0  0  0  0  0  0  0  0  0
   -1.3001    1.3087    0.7253 H   0  0  0  0  0  0  0  0  0  0  0  0
   -1.3009    1.3091   -0.7234 H   0  0  0  0  0  0  0  0  0  0  0  0
   -2.6741   -3.2655    3.2405 C   0  0  0  0  0  0  0  0  0  0  0  0
   -3.4381   -2.9942    2.7088 H   0  0  0  0  0  0  0  0  0  0  0  0
   -2.8868   -3.1791    4.1832 H   0  0  0  0  0  0  0  0  0  0  0  0
   -2.4610   -4.3136    3.0301 H   0  0  0  0  0  0  0  0  0  0  0  0
   -1.3272   -2.1163    2.8796 S   0  0  0  0  0  0  0  0  0  0  0  0
   -0.2369   -2.5031    4.2094 C   0  0  0  0  0  0  0  0  0  0  0  0
    0.5534   -1.9446    4.1413 H   0  0  0  0  0  0  0  0  0  0  0  0
   -0.6918   -2.3326    5.0498 H   0  0  0  0  0  0  0  0  0  0  0  0
    0.0121   -3.4385    4.1515 H   0  0  0  0  0  0  0  0  0  0  0  0
  1  5  1  0
  5  8  1  0
  1  2  1  0
  1  3  1  0
  1  4  1  0
  5  6  1  0
  5  7  1  0
  8  9  1  0
  8 10  1  0
  8 11  1  0
 12 16  1  0
 16 17  1  0
 12 13  1  0
 12 14  1  0
 12 15  1  0
 17 18  1  0
 17 19  1  0
 17 20  1  0
M  CHG  1   8   1
M  END
>  <PDB_ID>  (1557) 
pdb6ef6

>  <RESIDUE_NAME>  (1557) 
LYS   MET

>  <FRAG_NAME>  (1557) 
ETAM   MSM

>  <FRAG_ATOM_NUM>  (1557) 
fragi: 11  fragj: 9

>  <atom.prop.CHAIN_ID>  (1557) 
A A A A A A A A A A A Z Z Z Z Z Z Z Z Z

>  <atom.prop.IS_HEAVY_ATOM>  (1557) 
1 0 0 0 1 0 0 1 0 0 0 1 0 0 0 1 1 0 0 0

>  <DIFUSE_FUNC_ATOM>  (1557) 
n/a

>  <FINAL_SINGLE_POINT_ENERGY>  (1557) 
0

>  <NONCOV_INTER_ENERGY_QM>  (1557) 
0

>  <FF_Energy>  (1557) 
-4.4

>  <QM_Energy>  (1557) 
-9.55

>  <source>  (1557) 
ETAM_MSM

>  <Index>  (1557) 
9903

$$$$
ETAM-pdb6eew-A-LYS-444:MSM-pdb6eew-A-MET-448
     RDKit          3D

 20 18  0  0  0  0  0  0  0  0999 V2000
    1.2501    0.8696   -0.0000 C   0  0  0  0  0  0  0  0  0  0  0  0
    1.3529    1.2783   -0.8985 H   0  0  0  0  0  0  0  0  0  0  0  0
    2.0333    0.2995    0.2180 H   0  0  0  0  0  0  0  0  0  0  0  0
    1.1771    1.6656    0.7410 H   0  0  0  0  0  0  0  0  0  0  0  0
    0.0000    0.0000    0.0000 C   0  0  0  0  0  0  0  0  0  0  0  0
    0.0116   -0.5853   -0.8163 H   0  0  0  0  0  0  0  0  0  0  0  0
    0.0119   -0.5858    0.8163 H   0  0  0  0  0  0  0  0  0  0  0  0
   -1.2501    0.8115    0.0000 N   0  0  0  0  0  4  0  0  0  0  0  0
   -1.1811    1.5239    0.6973 H   0  0  0  0  0  0  0  0  0  0  0  0
   -1.3716    1.2321   -0.8984 H   0  0  0  0  0  0  0  0  0  0  0  0
   -2.0294    0.2182    0.2009 H   0  0  0  0  0  0  0  0  0  0  0  0
   -0.9327    3.0612   -2.6583 C   0  0  0  0  0  0  0  0  0  0  0  0
   -1.3667    2.1816   -2.9534 H   0  0  0  0  0  0  0  0  0  0  0  0
    0.0317    2.8247   -2.4095 H   0  0  0  0  0  0  0  0  0  0  0  0
   -0.9164    3.7429   -3.5086 H   0  0  0  0  0  0  0  0  0  0  0  0
   -1.8044    3.7568   -1.2379 S   0  0  0  0  0  0  0  0  0  0  0  0
   -3.4688    3.9223   -1.8885 C   0  0  0  0  0  0  0  0  0  0  0  0
   -3.5507    3.3950   -2.7354 H   0  0  0  0  0  0  0  0  0  0  0  0
   -4.1256    3.5773   -1.2170 H   0  0  0  0  0  0  0  0  0  0  0  0
   -3.6596    4.8863   -2.0774 H   0  0  0  0  0  0  0  0  0  0  0  0
  1  5  1  0
  5  8  1  0
  1  2  1  0
  1  3  1  0
  1  4  1  0
  5  6  1  0
  5  7  1  0
  8  9  1  0
  8 10  1  0
  8 11  1  0
 12 16  1  0
 16 17  1  0
 12 13  1  0
 12 14  1  0
 12 15  1  0
 17 18  1  0
 17 19  1  0
 17 20  1  0
M  CHG  1   8   1
M  END
>  <PDB_ID>  (1558) 
pdb6eew

>  <RESIDUE_NAME>  (1558) 
LYS   MET

>  <FRAG_NAME>  (1558) 
ETAM   MSM

>  <FRAG_ATOM_NUM>  (1558) 
fragi: 11  fragj: 9

>  <atom.prop.CHAIN_ID>  (1558) 
A A A A A A A A A A A Z Z Z Z Z Z Z Z Z

>  <atom.prop.IS_HEAVY_ATOM>  (1558) 
1 0 0 0 1 0 0 1 0 0 0 1 0 0 0 1 1 0 0 0

>  <DIFUSE_FUNC_ATOM>  (1558) 
n/a

>  <FINAL_SINGLE_POINT_ENERGY>  (1558) 
0

>  <NONCOV_INTER_ENERGY_QM>  (1558) 
0

>  <FF_Energy>  (1558) 
-4.47

>  <QM_Energy>  (1558) 
-11.59

>  <source>  (1558) 
ETAM_MSM

>  <Index>  (1558) 
9904

$$$$
ETAM-pdb6eew-B-LYS-444:MSM-pdb6eew-B-MET-448
     RDKit          3D

 20 18  0  0  0  0  0  0  0  0999 V2000
    1.2489    0.8770    0.0000 C   0  0  0  0  0  0  0  0  0  0  0  0
    1.3495    1.2855   -0.9047 H   0  0  0  0  0  0  0  0  0  0  0  0
    2.0383    0.3036    0.2036 H   0  0  0  0  0  0  0  0  0  0  0  0
    1.1973    1.6762    0.7394 H   0  0  0  0  0  0  0  0  0  0  0  0
    0.0000    0.0000    0.0000 C   0  0  0  0  0  0  0  0  0  0  0  0
    0.0142   -0.5817   -0.8163 H   0  0  0  0  0  0  0  0  0  0  0  0
    0.0128   -0.5823    0.8162 H   0  0  0  0  0  0  0  0  0  0  0  0
   -1.2489    0.8149    0.0000 N   0  0  0  0  0  4  0  0  0  0  0  0
   -2.0284    0.2236   -0.2027 H   0  0  0  0  0  0  0  0  0  0  0  0
   -1.3693    1.2338    0.8991 H   0  0  0  0  0  0  0  0  0  0  0  0
   -1.1777    1.5282   -0.6965 H   0  0  0  0  0  0  0  0  0  0  0  0
   -1.1140    3.5535   -2.4988 C   0  0  0  0  0  0  0  0  0  0  0  0
   -1.5971    2.6941   -2.8061 H   0  0  0  0  0  0  0  0  0  0  0  0
   -0.1524    3.2455   -2.2822 H   0  0  0  0  0  0  0  0  0  0  0  0
   -1.0708    4.2421   -3.3427 H   0  0  0  0  0  0  0  0  0  0  0  0
   -1.9116    4.2306   -1.0129 S   0  0  0  0  0  0  0  0  0  0  0  0
   -3.5918    4.4785   -1.5795 C   0  0  0  0  0  0  0  0  0  0  0  0
   -4.2280    4.3260   -0.8211 H   0  0  0  0  0  0  0  0  0  0  0  0
   -3.6975    5.4149   -1.9181 H   0  0  0  0  0  0  0  0  0  0  0  0
   -3.7960    3.8341   -2.3177 H   0  0  0  0  0  0  0  0  0  0  0  0
  1  5  1  0
  5  8  1  0
  1  2  1  0
  1  3  1  0
  1  4  1  0
  5  6  1  0
  5  7  1  0
  8  9  1  0
  8 10  1  0
  8 11  1  0
 12 16  1  0
 16 17  1  0
 12 13  1  0
 12 14  1  0
 12 15  1  0
 17 18  1  0
 17 19  1  0
 17 20  1  0
M  CHG  1   8   1
M  END
>  <PDB_ID>  (1559) 
pdb6eew

>  <RESIDUE_NAME>  (1559) 
LYS   MET

>  <FRAG_NAME>  (1559) 
ETAM   MSM

>  <FRAG_ATOM_NUM>  (1559) 
fragi: 11  fragj: 9

>  <atom.prop.CHAIN_ID>  (1559) 
A A A A A A A A A A A Z Z Z Z Z Z Z Z Z

>  <atom.prop.IS_HEAVY_ATOM>  (1559) 
1 0 0 0 1 0 0 1 0 0 0 1 0 0 0 1 1 0 0 0

>  <DIFUSE_FUNC_ATOM>  (1559) 
n/a

>  <FINAL_SINGLE_POINT_ENERGY>  (1559) 
0

>  <NONCOV_INTER_ENERGY_QM>  (1559) 
0

>  <FF_Energy>  (1559) 
-4.02

>  <QM_Energy>  (1559) 
-10.39

>  <source>  (1559) 
ETAM_MSM

>  <Index>  (1559) 
9905

$$$$
ETAM-pdb6eew-D-LYS-444:MSM-pdb6eew-D-MET-448
     RDKit          3D

 20 18  0  0  0  0  0  0  0  0999 V2000
    1.2357    0.8827    0.0000 C   0  0  0  0  0  0  0  0  0  0  0  0
    1.3349    1.2942   -0.8966 H   0  0  0  0  0  0  0  0  0  0  0  0
    2.0253    0.3275    0.2237 H   0  0  0  0  0  0  0  0  0  0  0  0
    1.1453    1.6773    0.7407 H   0  0  0  0  0  0  0  0  0  0  0  0
    0.0000    0.0000    0.0000 C   0  0  0  0  0  0  0  0  0  0  0  0
    0.0081   -0.5733   -0.8159 H   0  0  0  0  0  0  0  0  0  0  0  0
    0.0080   -0.5732    0.8161 H   0  0  0  0  0  0  0  0  0  0  0  0
   -1.2357    0.8357    0.0000 N   0  0  0  0  0  4  0  0  0  0  0  0
   -1.5875    0.9040    0.9324 H   0  0  0  0  0  0  0  0  0  0  0  0
   -1.0174    1.7475   -0.3448 H   0  0  0  0  0  0  0  0  0  0  0  0
   -1.9222    0.4099   -0.5885 H   0  0  0  0  0  0  0  0  0  0  0  0
   -1.1527    3.3265   -2.4950 C   0  0  0  0  0  0  0  0  0  0  0  0
   -1.5858    2.4503   -2.8071 H   0  0  0  0  0  0  0  0  0  0  0  0
   -0.1849    3.0827   -2.2556 H   0  0  0  0  0  0  0  0  0  0  0  0
   -1.1408    4.0260   -3.3309 H   0  0  0  0  0  0  0  0  0  0  0  0
   -2.0178    3.9801   -1.0450 S   0  0  0  0  0  0  0  0  0  0  0  0
   -3.6923    4.1332   -1.6732 C   0  0  0  0  0  0  0  0  0  0  0  0
   -4.1181    4.9546   -1.2925 H   0  0  0  0  0  0  0  0  0  0  0  0
   -3.6694    4.2021   -2.6707 H   0  0  0  0  0  0  0  0  0  0  0  0
   -4.2240    3.3284   -1.4067 H   0  0  0  0  0  0  0  0  0  0  0  0
  1  5  1  0
  5  8  1  0
  1  2  1  0
  1  3  1  0
  1  4  1  0
  5  6  1  0
  5  7  1  0
  8  9  1  0
  8 10  1  0
  8 11  1  0
 12 16  1  0
 16 17  1  0
 12 13  1  0
 12 14  1  0
 12 15  1  0
 17 18  1  0
 17 19  1  0
 17 20  1  0
M  CHG  1   8   1
M  END
>  <PDB_ID>  (1560) 
pdb6eew

>  <RESIDUE_NAME>  (1560) 
LYS   MET

>  <FRAG_NAME>  (1560) 
ETAM   MSM

>  <FRAG_ATOM_NUM>  (1560) 
fragi: 11  fragj: 9

>  <atom.prop.CHAIN_ID>  (1560) 
A A A A A A A A A A A Z Z Z Z Z Z Z Z Z

>  <atom.prop.IS_HEAVY_ATOM>  (1560) 
1 0 0 0 1 0 0 1 0 0 0 1 0 0 0 1 1 0 0 0

>  <DIFUSE_FUNC_ATOM>  (1560) 
n/a

>  <FINAL_SINGLE_POINT_ENERGY>  (1560) 
0

>  <NONCOV_INTER_ENERGY_QM>  (1560) 
0

>  <FF_Energy>  (1560) 
-4.46

>  <QM_Energy>  (1560) 
-11.54

>  <source>  (1560) 
ETAM_MSM

>  <Index>  (1560) 
9908

$$$$
ETAM-pdb5e8m-B-LYS-44:MSM-pdb5e8m-A-MET-502
     RDKit          3D

 20 18  0  0  0  0  0  0  0  0999 V2000
    1.2532    0.8401    0.0000 C   0  0  0  0  0  0  0  0  0  0  0  0
    1.2816    1.3828    0.8435 H   0  0  0  0  0  0  0  0  0  0  0  0
    1.2273    1.4632   -0.7863 H   0  0  0  0  0  0  0  0  0  0  0  0
    2.1711    0.2553   -0.0588 H   0  0  0  0  0  0  0  0  0  0  0  0
    0.0000    0.0000    0.0000 C   0  0  0  0  0  0  0  0  0  0  0  0
    0.0045   -0.5985   -0.8164 H   0  0  0  0  0  0  0  0  0  0  0  0
    0.0038   -0.5993    0.8167 H   0  0  0  0  0  0  0  0  0  0  0  0
   -1.2532    0.8015   -0.0000 N   0  0  0  0  0  4  0  0  0  0  0  0
   -1.7365    0.6617    0.8639 H   0  0  0  0  0  0  0  0  0  0  0  0
   -1.0279    1.7701   -0.1043 H   0  0  0  0  0  0  0  0  0  0  0  0
   -1.8344    0.5088   -0.7596 H   0  0  0  0  0  0  0  0  0  0  0  0
    1.1146   -5.5435    0.6325 C   0  0  0  0  0  0  0  0  0  0  0  0
    1.7334   -6.3481    0.4561 H   0  0  0  0  0  0  0  0  0  0  0  0
    0.2906   -5.7082    0.0355 H   0  0  0  0  0  0  0  0  0  0  0  0
    0.7898   -5.5956    1.6717 H   0  0  0  0  0  0  0  0  0  0  0  0
    1.9313   -3.9923    0.1902 S   0  0  0  0  0  0  0  0  0  0  0  0
    0.6290   -3.0310   -0.4489 C   0  0  0  0  0  0  0  0  0  0  0  0
    0.4357   -2.2413    0.1498 H   0  0  0  0  0  0  0  0  0  0  0  0
    0.8584   -2.6766   -1.3663 H   0  0  0  0  0  0  0  0  0  0  0  0
   -0.2173   -3.5765   -0.5286 H   0  0  0  0  0  0  0  0  0  0  0  0
  1  5  1  0
  5  8  1  0
  1  2  1  0
  1  3  1  0
  1  4  1  0
  5  6  1  0
  5  7  1  0
  8  9  1  0
  8 10  1  0
  8 11  1  0
 12 16  1  0
 16 17  1  0
 12 13  1  0
 12 14  1  0
 12 15  1  0
 17 18  1  0
 17 19  1  0
 17 20  1  0
M  CHG  1   8   1
M  END
>  <PDB_ID>  (1561) 
pdb5e8m

>  <RESIDUE_NAME>  (1561) 
LYS   MET

>  <FRAG_NAME>  (1561) 
ETAM   MSM

>  <FRAG_ATOM_NUM>  (1561) 
fragi: 11  fragj: 9

>  <atom.prop.CHAIN_ID>  (1561) 
A A A A A A A A A A A Z Z Z Z Z Z Z Z Z

>  <atom.prop.IS_HEAVY_ATOM>  (1561) 
1 0 0 0 1 0 0 1 0 0 0 1 0 0 0 1 1 0 0 0

>  <DIFUSE_FUNC_ATOM>  (1561) 
n/a

>  <FINAL_SINGLE_POINT_ENERGY>  (1561) 
0

>  <NONCOV_INTER_ENERGY_QM>  (1561) 
0

>  <FF_Energy>  (1561) 
8.23

>  <QM_Energy>  (1561) 
3.08

>  <source>  (1561) 
ETAM_MSM

>  <Index>  (1561) 
9910

$$$$
ETAM-pdb6efw-A-LYS-4:MSM-pdb6efw-A-MET-1
     RDKit          3D

 20 18  0  0  0  0  0  0  0  0999 V2000
    1.2326    0.8759   -0.0000 C   0  0  0  0  0  0  0  0  0  0  0  0
    1.2138    1.4544    0.8158 H   0  0  0  0  0  0  0  0  0  0  0  0
    1.2128    1.4543   -0.8166 H   0  0  0  0  0  0  0  0  0  0  0  0
    2.1577    0.2994   -0.0000 H   0  0  0  0  0  0  0  0  0  0  0  0
    0.0000    0.0000    0.0000 C   0  0  0  0  0  0  0  0  0  0  0  0
    0.0092   -0.5786   -0.8161 H   0  0  0  0  0  0  0  0  0  0  0  0
    0.0092   -0.5790    0.8161 H   0  0  0  0  0  0  0  0  0  0  0  0
   -1.2326    0.8259    0.0000 N   0  0  0  0  0  4  0  0  0  0  0  0
   -2.0128    0.2609   -0.2674 H   0  0  0  0  0  0  0  0  0  0  0  0
   -1.3862    1.1956    0.9171 H   0  0  0  0  0  0  0  0  0  0  0  0
   -1.1284    1.5805   -0.6494 H   0  0  0  0  0  0  0  0  0  0  0  0
    0.5668    3.2000    4.2969 C   0  0  0  0  0  0  0  0  0  0  0  0
    0.0471    2.4623    4.7297 H   0  0  0  0  0  0  0  0  0  0  0  0
    0.2805    4.0782    4.6797 H   0  0  0  0  0  0  0  0  0  0  0  0
    1.6341    3.0496    4.4590 H   0  0  0  0  0  0  0  0  0  0  0  0
    0.2828    3.1848    2.4897 S   0  0  0  0  0  0  0  0  0  0  0  0
    1.3183    4.5682    2.0031 C   0  0  0  0  0  0  0  0  0  0  0  0
    1.8004    4.9234    2.8049 H   0  0  0  0  0  0  0  0  0  0  0  0
    1.9848    4.2636    1.3220 H   0  0  0  0  0  0  0  0  0  0  0  0
    0.7482    5.2905    1.6098 H   0  0  0  0  0  0  0  0  0  0  0  0
  1  5  1  0
  5  8  1  0
  1  2  1  0
  1  3  1  0
  1  4  1  0
  5  6  1  0
  5  7  1  0
  8  9  1  0
  8 10  1  0
  8 11  1  0
 12 16  1  0
 16 17  1  0
 12 13  1  0
 12 14  1  0
 12 15  1  0
 17 18  1  0
 17 19  1  0
 17 20  1  0
M  CHG  1   8   1
M  END
>  <PDB_ID>  (1562) 
pdb6efw

>  <RESIDUE_NAME>  (1562) 
LYS   MET

>  <FRAG_NAME>  (1562) 
ETAM   MSM

>  <FRAG_ATOM_NUM>  (1562) 
fragi: 11  fragj: 9

>  <atom.prop.CHAIN_ID>  (1562) 
A A A A A A A A A A A Z Z Z Z Z Z Z Z Z

>  <atom.prop.IS_HEAVY_ATOM>  (1562) 
1 0 0 0 1 0 0 1 0 0 0 1 0 0 0 1 1 0 0 0

>  <DIFUSE_FUNC_ATOM>  (1562) 
n/a

>  <FINAL_SINGLE_POINT_ENERGY>  (1562) 
0

>  <NONCOV_INTER_ENERGY_QM>  (1562) 
0

>  <FF_Energy>  (1562) 
-3.98

>  <QM_Energy>  (1562) 
-10.99

>  <source>  (1562) 
ETAM_MSM

>  <Index>  (1562) 
9911

$$$$
ETAM-pdb6eew-A-LYS-151:MSM-pdb6eew-A-MET-154
     RDKit          3D

 20 18  0  0  0  0  0  0  0  0999 V2000
    1.2699    0.8603    0.0000 C   0  0  0  0  0  0  0  0  0  0  0  0
    2.0573    0.2591    0.1015 H   0  0  0  0  0  0  0  0  0  0  0  0
    1.2205    1.4937    0.7667 H   0  0  0  0  0  0  0  0  0  0  0  0
    1.3862    1.4336   -0.9197 H   0  0  0  0  0  0  0  0  0  0  0  0
    0.0000    0.0000    0.0000 C   0  0  0  0  0  0  0  0  0  0  0  0
    0.0106   -0.5903   -0.8159 H   0  0  0  0  0  0  0  0  0  0  0  0
    0.0094   -0.5902    0.8161 H   0  0  0  0  0  0  0  0  0  0  0  0
   -1.2699    0.8064   -0.0000 N   0  0  0  0  0  4  0  0  0  0  0  0
   -1.4006    1.2041   -0.9052 H   0  0  0  0  0  0  0  0  0  0  0  0
   -2.0345    0.2062    0.2219 H   0  0  0  0  0  0  0  0  0  0  0  0
   -1.1944    1.5293    0.6822 H   0  0  0  0  0  0  0  0  0  0  0  0
    1.3229    3.6966    3.4667 C   0  0  0  0  0  0  0  0  0  0  0  0
    1.0032    4.2110    4.3027 H   0  0  0  0  0  0  0  0  0  0  0  0
    1.8744    4.3872    2.9324 H   0  0  0  0  0  0  0  0  0  0  0  0
    1.9730    2.8782    3.7759 H   0  0  0  0  0  0  0  0  0  0  0  0
   -0.0882    3.1459    2.4982 S   0  0  0  0  0  0  0  0  0  0  0  0
   -0.7822    4.7479    2.1042 C   0  0  0  0  0  0  0  0  0  0  0  0
   -1.2585    5.1145    2.9055 H   0  0  0  0  0  0  0  0  0  0  0  0
   -0.0489    5.3765    1.8397 H   0  0  0  0  0  0  0  0  0  0  0  0
   -1.4303    4.6566    1.3465 H   0  0  0  0  0  0  0  0  0  0  0  0
  1  5  1  0
  5  8  1  0
  1  2  1  0
  1  3  1  0
  1  4  1  0
  5  6  1  0
  5  7  1  0
  8  9  1  0
  8 10  1  0
  8 11  1  0
 12 16  1  0
 16 17  1  0
 12 13  1  0
 12 14  1  0
 12 15  1  0
 17 18  1  0
 17 19  1  0
 17 20  1  0
M  CHG  1   8   1
M  END
>  <PDB_ID>  (1563) 
pdb6eew

>  <RESIDUE_NAME>  (1563) 
LYS   MET

>  <FRAG_NAME>  (1563) 
ETAM   MSM

>  <FRAG_ATOM_NUM>  (1563) 
fragi: 11  fragj: 9

>  <atom.prop.CHAIN_ID>  (1563) 
A A A A A A A A A A A Z Z Z Z Z Z Z Z Z

>  <atom.prop.IS_HEAVY_ATOM>  (1563) 
1 0 0 0 1 0 0 1 0 0 0 1 0 0 0 1 1 0 0 0

>  <DIFUSE_FUNC_ATOM>  (1563) 
n/a

>  <FINAL_SINGLE_POINT_ENERGY>  (1563) 
0

>  <NONCOV_INTER_ENERGY_QM>  (1563) 
0

>  <FF_Energy>  (1563) 
-5.2

>  <QM_Energy>  (1563) 
-11.89

>  <source>  (1563) 
ETAM_MSM

>  <Index>  (1563) 
9920

$$$$
ETAM-pdb5e9g-B-LYS-51:MSM-pdb5e9g-C-MET-526
     RDKit          3D

 20 18  0  0  0  0  0  0  0  0999 V2000
    1.2542    0.8630   -0.0000 C   0  0  0  0  0  0  0  0  0  0  0  0
    2.0490    0.2688   -0.0461 H   0  0  0  0  0  0  0  0  0  0  0  0
    1.2685    1.4015    0.8343 H   0  0  0  0  0  0  0  0  0  0  0  0
    1.2697    1.5382   -0.8556 H   0  0  0  0  0  0  0  0  0  0  0  0
    0.0000    0.0000    0.0000 C   0  0  0  0  0  0  0  0  0  0  0  0
    0.0078   -0.5868   -0.8161 H   0  0  0  0  0  0  0  0  0  0  0  0
    0.0078   -0.5866    0.8162 H   0  0  0  0  0  0  0  0  0  0  0  0
   -1.2542    0.8148   -0.0000 N   0  0  0  0  0  4  0  0  0  0  0  0
   -1.7100    0.7146   -0.8830 H   0  0  0  0  0  0  0  0  0  0  0  0
   -1.8551    0.4918    0.7291 H   0  0  0  0  0  0  0  0  0  0  0  0
   -1.0221    1.7734    0.1537 H   0  0  0  0  0  0  0  0  0  0  0  0
   -2.7148   -0.8253   -4.2110 C   0  0  0  0  0  0  0  0  0  0  0  0
   -2.7010   -1.0827   -5.1977 H   0  0  0  0  0  0  0  0  0  0  0  0
   -3.6776   -0.5661   -3.9964 H   0  0  0  0  0  0  0  0  0  0  0  0
   -2.4462   -1.6991   -3.6174 H   0  0  0  0  0  0  0  0  0  0  0  0
   -1.5973    0.5449   -3.8923 S   0  0  0  0  0  0  0  0  0  0  0  0
   -0.1442    0.0139   -4.7871 C   0  0  0  0  0  0  0  0  0  0  0  0
   -0.4183   -0.4877   -5.6098 H   0  0  0  0  0  0  0  0  0  0  0  0
    0.3996    0.8119   -5.0530 H   0  0  0  0  0  0  0  0  0  0  0  0
    0.4104   -0.5847   -4.2063 H   0  0  0  0  0  0  0  0  0  0  0  0
  1  5  1  0
  5  8  1  0
  1  2  1  0
  1  3  1  0
  1  4  1  0
  5  6  1  0
  5  7  1  0
  8  9  1  0
  8 10  1  0
  8 11  1  0
 12 16  1  0
 16 17  1  0
 12 13  1  0
 12 14  1  0
 12 15  1  0
 17 18  1  0
 17 19  1  0
 17 20  1  0
M  CHG  1   8   1
M  END
>  <PDB_ID>  (1564) 
pdb5e9g

>  <RESIDUE_NAME>  (1564) 
LYS   MET

>  <FRAG_NAME>  (1564) 
ETAM   MSM

>  <FRAG_ATOM_NUM>  (1564) 
fragi: 11  fragj: 9

>  <atom.prop.CHAIN_ID>  (1564) 
A A A A A A A A A A A Z Z Z Z Z Z Z Z Z

>  <atom.prop.IS_HEAVY_ATOM>  (1564) 
1 0 0 0 1 0 0 1 0 0 0 1 0 0 0 1 1 0 0 0

>  <DIFUSE_FUNC_ATOM>  (1564) 
n/a

>  <FINAL_SINGLE_POINT_ENERGY>  (1564) 
0

>  <NONCOV_INTER_ENERGY_QM>  (1564) 
0

>  <FF_Energy>  (1564) 
-4.57

>  <QM_Energy>  (1564) 
-11.94

>  <source>  (1564) 
ETAM_MSM

>  <Index>  (1564) 
9925

$$$$
ETAM-pdb5ed8-A-LYS-484:MSM-pdb5ed8-A-MET-481
     RDKit          3D

 20 18  0  0  0  0  0  0  0  0999 V2000
    1.2325    0.8735    0.0000 C   0  0  0  0  0  0  0  0  0  0  0  0
    1.2148    1.4526    0.8170 H   0  0  0  0  0  0  0  0  0  0  0  0
    1.2145    1.4536   -0.8159 H   0  0  0  0  0  0  0  0  0  0  0  0
    2.1572    0.2966    0.0005 H   0  0  0  0  0  0  0  0  0  0  0  0
    0.0000    0.0000    0.0000 C   0  0  0  0  0  0  0  0  0  0  0  0
    0.0068   -0.5772   -0.8168 H   0  0  0  0  0  0  0  0  0  0  0  0
    0.0068   -0.5791    0.8156 H   0  0  0  0  0  0  0  0  0  0  0  0
   -1.2325    0.8293   -0.0000 N   0  0  0  0  0  4  0  0  0  0  0  0
   -1.7411    0.6698    0.8468 H   0  0  0  0  0  0  0  0  0  0  0  0
   -0.9837    1.7961   -0.0633 H   0  0  0  0  0  0  0  0  0  0  0  0
   -1.8027    0.5787   -0.7830 H   0  0  0  0  0  0  0  0  0  0  0  0
   -0.0581    1.8895    2.6132 C   0  0  0  0  0  0  0  0  0  0  0  0
   -0.2775    1.0985    2.0081 H   0  0  0  0  0  0  0  0  0  0  0  0
   -0.6620    1.8008    3.4310 H   0  0  0  0  0  0  0  0  0  0  0  0
    0.9805    1.8071    2.9336 H   0  0  0  0  0  0  0  0  0  0  0  0
   -0.3615    3.4479    1.7624 S   0  0  0  0  0  0  0  0  0  0  0  0
    0.1742    4.6176    3.0072 C   0  0  0  0  0  0  0  0  0  0  0  0
    0.9692    4.2514    3.4923 H   0  0  0  0  0  0  0  0  0  0  0  0
    0.4227    5.4840    2.5700 H   0  0  0  0  0  0  0  0  0  0  0  0
   -0.5673    4.7769    3.6601 H   0  0  0  0  0  0  0  0  0  0  0  0
  1  5  1  0
  5  8  1  0
  1  2  1  0
  1  3  1  0
  1  4  1  0
  5  6  1  0
  5  7  1  0
  8  9  1  0
  8 10  1  0
  8 11  1  0
 12 16  1  0
 16 17  1  0
 12 13  1  0
 12 14  1  0
 12 15  1  0
 17 18  1  0
 17 19  1  0
 17 20  1  0
M  CHG  1   8   1
M  END
>  <PDB_ID>  (1565) 
pdb5ed8

>  <RESIDUE_NAME>  (1565) 
LYS   MET

>  <FRAG_NAME>  (1565) 
ETAM   MSM

>  <FRAG_ATOM_NUM>  (1565) 
fragi: 11  fragj: 9

>  <atom.prop.CHAIN_ID>  (1565) 
A A A A A A A A A A A Z Z Z Z Z Z Z Z Z

>  <atom.prop.IS_HEAVY_ATOM>  (1565) 
1 0 0 0 1 0 0 1 0 0 0 1 0 0 0 1 1 0 0 0

>  <DIFUSE_FUNC_ATOM>  (1565) 
n/a

>  <FINAL_SINGLE_POINT_ENERGY>  (1565) 
0

>  <NONCOV_INTER_ENERGY_QM>  (1565) 
0

>  <FF_Energy>  (1565) 
13.74

>  <QM_Energy>  (1565) 
-2.87

>  <source>  (1565) 
ETAM_MSM

>  <Index>  (1565) 
9927

$$$$
ETAM-pdb6eew-B-LYS-151:MSM-pdb6eew-B-MET-154
     RDKit          3D

 20 18  0  0  0  0  0  0  0  0999 V2000
    1.2560    0.8662   -0.0000 C   0  0  0  0  0  0  0  0  0  0  0  0
    2.0505    0.2737    0.1099 H   0  0  0  0  0  0  0  0  0  0  0  0
    1.2003    1.5064    0.7620 H   0  0  0  0  0  0  0  0  0  0  0  0
    1.3713    1.4333   -0.9237 H   0  0  0  0  0  0  0  0  0  0  0  0
    0.0000    0.0000    0.0000 C   0  0  0  0  0  0  0  0  0  0  0  0
    0.0082   -0.5853   -0.8160 H   0  0  0  0  0  0  0  0  0  0  0  0
    0.0084   -0.5849    0.8166 H   0  0  0  0  0  0  0  0  0  0  0  0
   -1.2560    0.8172    0.0000 N   0  0  0  0  0  4  0  0  0  0  0  0
   -1.8761    0.4621    0.6968 H   0  0  0  0  0  0  0  0  0  0  0  0
   -1.0274    1.7678    0.2021 H   0  0  0  0  0  0  0  0  0  0  0  0
   -1.6850    0.7563   -0.8990 H   0  0  0  0  0  0  0  0  0  0  0  0
    1.3292    3.6464    3.4376 C   0  0  0  0  0  0  0  0  0  0  0  0
    1.0063    4.1463    4.2731 H   0  0  0  0  0  0  0  0  0  0  0  0
    1.8700    4.3335    2.9004 H   0  0  0  0  0  0  0  0  0  0  0  0
    1.9977    2.8442    3.7502 H   0  0  0  0  0  0  0  0  0  0  0  0
   -0.0665    3.0430    2.4768 S   0  0  0  0  0  0  0  0  0  0  0  0
   -0.8542    4.5975    2.0586 C   0  0  0  0  0  0  0  0  0  0  0  0
   -0.4055    5.3446    2.5505 H   0  0  0  0  0  0  0  0  0  0  0  0
   -0.7796    4.7569    1.0733 H   0  0  0  0  0  0  0  0  0  0  0  0
   -1.8208    4.5637    2.3171 H   0  0  0  0  0  0  0  0  0  0  0  0
  1  5  1  0
  5  8  1  0
  1  2  1  0
  1  3  1  0
  1  4  1  0
  5  6  1  0
  5  7  1  0
  8  9  1  0
  8 10  1  0
  8 11  1  0
 12 16  1  0
 16 17  1  0
 12 13  1  0
 12 14  1  0
 12 15  1  0
 17 18  1  0
 17 19  1  0
 17 20  1  0
M  CHG  1   8   1
M  END
>  <PDB_ID>  (1566) 
pdb6eew

>  <RESIDUE_NAME>  (1566) 
LYS   MET

>  <FRAG_NAME>  (1566) 
ETAM   MSM

>  <FRAG_ATOM_NUM>  (1566) 
fragi: 11  fragj: 9

>  <atom.prop.CHAIN_ID>  (1566) 
A A A A A A A A A A A Z Z Z Z Z Z Z Z Z

>  <atom.prop.IS_HEAVY_ATOM>  (1566) 
1 0 0 0 1 0 0 1 0 0 0 1 0 0 0 1 1 0 0 0

>  <DIFUSE_FUNC_ATOM>  (1566) 
n/a

>  <FINAL_SINGLE_POINT_ENERGY>  (1566) 
0

>  <NONCOV_INTER_ENERGY_QM>  (1566) 
0

>  <FF_Energy>  (1566) 
-4.6

>  <QM_Energy>  (1566) 
-11.08

>  <source>  (1566) 
ETAM_MSM

>  <Index>  (1566) 
9937

$$$$
ETAM-pdb5e9g-C-LYS-51:MSM-pdb5e9g-B-MET-526
     RDKit          3D

 20 18  0  0  0  0  0  0  0  0999 V2000
    1.2458    0.8745   -0.0000 C   0  0  0  0  0  0  0  0  0  0  0  0
    2.0443    0.2855    0.0812 H   0  0  0  0  0  0  0  0  0  0  0  0
    1.1951    1.4951    0.7765 H   0  0  0  0  0  0  0  0  0  0  0  0
    1.3271    1.4580   -0.9170 H   0  0  0  0  0  0  0  0  0  0  0  0
    0.0000    0.0000    0.0000 C   0  0  0  0  0  0  0  0  0  0  0  0
    0.0153   -0.5847   -0.8161 H   0  0  0  0  0  0  0  0  0  0  0  0
    0.0147   -0.5848    0.8160 H   0  0  0  0  0  0  0  0  0  0  0  0
   -1.2458    0.8096   -0.0000 N   0  0  0  0  0  4  0  0  0  0  0  0
   -1.5569    0.9418   -0.9417 H   0  0  0  0  0  0  0  0  0  0  0  0
   -1.9531    0.3323    0.5211 H   0  0  0  0  0  0  0  0  0  0  0  0
   -1.0653    1.6991    0.4197 H   0  0  0  0  0  0  0  0  0  0  0  0
   -2.3340   -1.5506   -4.0313 C   0  0  0  0  0  0  0  0  0  0  0  0
   -2.1784   -1.9846   -4.9499 H   0  0  0  0  0  0  0  0  0  0  0  0
   -3.3292   -1.2907   -4.0232 H   0  0  0  0  0  0  0  0  0  0  0  0
   -2.1665   -2.3033   -3.2609 H   0  0  0  0  0  0  0  0  0  0  0  0
   -1.2924   -0.0800   -3.8406 S   0  0  0  0  0  0  0  0  0  0  0  0
    0.3498   -0.7583   -4.1327 C   0  0  0  0  0  0  0  0  0  0  0  0
    0.3307   -1.7471   -3.9850 H   0  0  0  0  0  0  0  0  0  0  0  0
    0.6246   -0.5655   -5.0738 H   0  0  0  0  0  0  0  0  0  0  0  0
    0.9994   -0.3367   -3.5007 H   0  0  0  0  0  0  0  0  0  0  0  0
  1  5  1  0
  5  8  1  0
  1  2  1  0
  1  3  1  0
  1  4  1  0
  5  6  1  0
  5  7  1  0
  8  9  1  0
  8 10  1  0
  8 11  1  0
 12 16  1  0
 16 17  1  0
 12 13  1  0
 12 14  1  0
 12 15  1  0
 17 18  1  0
 17 19  1  0
 17 20  1  0
M  CHG  1   8   1
M  END
>  <PDB_ID>  (1567) 
pdb5e9g

>  <RESIDUE_NAME>  (1567) 
LYS   MET

>  <FRAG_NAME>  (1567) 
ETAM   MSM

>  <FRAG_ATOM_NUM>  (1567) 
fragi: 11  fragj: 9

>  <atom.prop.CHAIN_ID>  (1567) 
A A A A A A A A A A A Z Z Z Z Z Z Z Z Z

>  <atom.prop.IS_HEAVY_ATOM>  (1567) 
1 0 0 0 1 0 0 1 0 0 0 1 0 0 0 1 1 0 0 0

>  <DIFUSE_FUNC_ATOM>  (1567) 
n/a

>  <FINAL_SINGLE_POINT_ENERGY>  (1567) 
0

>  <NONCOV_INTER_ENERGY_QM>  (1567) 
0

>  <FF_Energy>  (1567) 
-4.56

>  <QM_Energy>  (1567) 
-11.87

>  <source>  (1567) 
ETAM_MSM

>  <Index>  (1567) 
9951

$$$$
ETAM-pdb6esl-B-LYS-148:MSM-pdb6esl-B-MET-216
     RDKit          3D

 20 18  0  0  0  0  0  0  0  0999 V2000
    1.2720    0.8603   -0.0000 C   0  0  0  0  0  0  0  0  0  0  0  0
    1.2014    1.5149   -0.7646 H   0  0  0  0  0  0  0  0  0  0  0  0
    2.0561    0.2510   -0.1808 H   0  0  0  0  0  0  0  0  0  0  0  0
    1.4559    1.4115    0.9222 H   0  0  0  0  0  0  0  0  0  0  0  0
    0.0000    0.0000    0.0000 C   0  0  0  0  0  0  0  0  0  0  0  0
    0.0079   -0.5888   -0.8163 H   0  0  0  0  0  0  0  0  0  0  0  0
    0.0076   -0.5892    0.8163 H   0  0  0  0  0  0  0  0  0  0  0  0
   -1.2720    0.8119   -0.0000 N   0  0  0  0  0  4  0  0  0  0  0  0
   -2.0168    0.2416   -0.3342 H   0  0  0  0  0  0  0  0  0  0  0  0
   -1.4610    1.1123    0.9311 H   0  0  0  0  0  0  0  0  0  0  0  0
   -1.1497    1.6006   -0.5965 H   0  0  0  0  0  0  0  0  0  0  0  0
    1.4211   -2.5927    0.3946 C   0  0  0  0  0  0  0  0  0  0  0  0
    1.1430   -1.8861   -0.2609 H   0  0  0  0  0  0  0  0  0  0  0  0
    0.6593   -2.7735    1.0216 H   0  0  0  0  0  0  0  0  0  0  0  0
    1.6017   -3.5070   -0.1707 H   0  0  0  0  0  0  0  0  0  0  0  0
    2.9281   -2.1192    1.2911 S   0  0  0  0  0  0  0  0  0  0  0  0
    3.8422   -1.4302   -0.0794 C   0  0  0  0  0  0  0  0  0  0  0  0
    4.5227   -2.0924   -0.3996 H   0  0  0  0  0  0  0  0  0  0  0  0
    3.2149   -1.2130   -0.8297 H   0  0  0  0  0  0  0  0  0  0  0  0
    4.3100   -0.5932    0.2114 H   0  0  0  0  0  0  0  0  0  0  0  0
  1  5  1  0
  5  8  1  0
  1  2  1  0
  1  3  1  0
  1  4  1  0
  5  6  1  0
  5  7  1  0
  8  9  1  0
  8 10  1  0
  8 11  1  0
 12 16  1  0
 16 17  1  0
 12 13  1  0
 12 14  1  0
 12 15  1  0
 17 18  1  0
 17 19  1  0
 17 20  1  0
M  CHG  1   8   1
M  END
>  <PDB_ID>  (1568) 
pdb6esl

>  <RESIDUE_NAME>  (1568) 
LYS   MET

>  <FRAG_NAME>  (1568) 
ETAM   MSM

>  <FRAG_ATOM_NUM>  (1568) 
fragi: 11  fragj: 9

>  <atom.prop.CHAIN_ID>  (1568) 
A A A A A A A A A A A Z Z Z Z Z Z Z Z Z

>  <atom.prop.IS_HEAVY_ATOM>  (1568) 
1 0 0 0 1 0 0 1 0 0 0 1 0 0 0 1 1 0 0 0

>  <DIFUSE_FUNC_ATOM>  (1568) 
n/a

>  <FINAL_SINGLE_POINT_ENERGY>  (1568) 
0

>  <NONCOV_INTER_ENERGY_QM>  (1568) 
0

>  <FF_Energy>  (1568) 
12.82

>  <QM_Energy>  (1568) 
2.35

>  <source>  (1568) 
ETAM_MSM

>  <Index>  (1568) 
9978

$$$$
ETAM-pdb5eln-B-LYS-535:MSM-pdb5eln-B-MET-543
     RDKit          3D

 20 18  0  0  0  0  0  0  0  0999 V2000
    1.2606    0.8760   -0.0000 C   0  0  0  0  0  0  0  0  0  0  0  0
    2.0517    0.2816   -0.1231 H   0  0  0  0  0  0  0  0  0  0  0  0
    1.3173    1.3387    0.8812 H   0  0  0  0  0  0  0  0  0  0  0  0
    1.2487    1.6221   -0.7947 H   0  0  0  0  0  0  0  0  0  0  0  0
    0.0000    0.0000    0.0000 C   0  0  0  0  0  0  0  0  0  0  0  0
    0.0228   -0.5900   -0.8163 H   0  0  0  0  0  0  0  0  0  0  0  0
    0.0223   -0.5905    0.8165 H   0  0  0  0  0  0  0  0  0  0  0  0
   -1.2606    0.7914    0.0000 N   0  0  0  0  0  4  0  0  0  0  0  0
   -1.0913    1.6843    0.4166 H   0  0  0  0  0  0  0  0  0  0  0  0
   -1.5750    0.9146   -0.9414 H   0  0  0  0  0  0  0  0  0  0  0  0
   -1.9580    0.3037    0.5250 H   0  0  0  0  0  0  0  0  0  0  0  0
   -0.4682    2.6208    4.6990 C   0  0  0  0  0  0  0  0  0  0  0  0
   -0.8276    3.4709    4.2702 H   0  0  0  0  0  0  0  0  0  0  0  0
    0.2306    2.9116    5.3795 H   0  0  0  0  0  0  0  0  0  0  0  0
   -1.2848    2.1327    5.2310 H   0  0  0  0  0  0  0  0  0  0  0  0
    0.2580    1.5283    3.4564 S   0  0  0  0  0  0  0  0  0  0  0  0
    0.9614    0.2738    4.5194 C   0  0  0  0  0  0  0  0  0  0  0  0
    0.2583   -0.0721    5.1438 H   0  0  0  0  0  0  0  0  0  0  0  0
    1.3100   -0.4828    3.9626 H   0  0  0  0  0  0  0  0  0  0  0  0
    1.7131    0.6666    5.0527 H   0  0  0  0  0  0  0  0  0  0  0  0
  1  5  1  0
  5  8  1  0
  1  2  1  0
  1  3  1  0
  1  4  1  0
  5  6  1  0
  5  7  1  0
  8  9  1  0
  8 10  1  0
  8 11  1  0
 12 16  1  0
 16 17  1  0
 12 13  1  0
 12 14  1  0
 12 15  1  0
 17 18  1  0
 17 19  1  0
 17 20  1  0
M  CHG  1   8   1
M  END
>  <PDB_ID>  (1569) 
pdb5eln

>  <RESIDUE_NAME>  (1569) 
LYS   MET

>  <FRAG_NAME>  (1569) 
ETAM   MSM

>  <FRAG_ATOM_NUM>  (1569) 
fragi: 11  fragj: 9

>  <atom.prop.CHAIN_ID>  (1569) 
A A A A A A A A A A A Z Z Z Z Z Z Z Z Z

>  <atom.prop.IS_HEAVY_ATOM>  (1569) 
1 0 0 0 1 0 0 1 0 0 0 1 0 0 0 1 1 0 0 0

>  <DIFUSE_FUNC_ATOM>  (1569) 
n/a

>  <FINAL_SINGLE_POINT_ENERGY>  (1569) 
0

>  <NONCOV_INTER_ENERGY_QM>  (1569) 
0

>  <FF_Energy>  (1569) 
-4.87

>  <QM_Energy>  (1569) 
-11.32

>  <source>  (1569) 
ETAM_MSM

>  <Index>  (1569) 
9986

$$$$
ETAM-pdb5ex6-C-LYS-111:MSM-pdb5ex6-C-MET-212
     RDKit          3D

 20 18  0  0  0  0  0  0  0  0999 V2000
    1.2376    0.8786   -0.0000 C   0  0  0  0  0  0  0  0  0  0  0  0
    1.1474    1.5506    0.7262 H   0  0  0  0  0  0  0  0  0  0  0  0
    1.3065    1.3254   -0.8838 H   0  0  0  0  0  0  0  0  0  0  0  0
    2.1339    0.2830    0.1728 H   0  0  0  0  0  0  0  0  0  0  0  0
    0.0000    0.0000    0.0000 C   0  0  0  0  0  0  0  0  0  0  0  0
    0.0082   -0.5761   -0.8162 H   0  0  0  0  0  0  0  0  0  0  0  0
    0.0072   -0.5763    0.8167 H   0  0  0  0  0  0  0  0  0  0  0  0
   -1.2376    0.8320    0.0000 N   0  0  0  0  0  4  0  0  0  0  0  0
   -1.0580    1.6911   -0.4770 H   0  0  0  0  0  0  0  0  0  0  0  0
   -1.9688    0.3354   -0.4658 H   0  0  0  0  0  0  0  0  0  0  0  0
   -1.5080    1.0218    0.9432 H   0  0  0  0  0  0  0  0  0  0  0  0
   -4.2422    2.6677    0.5703 C   0  0  0  0  0  0  0  0  0  0  0  0
   -5.0443    2.8988    1.1766 H   0  0  0  0  0  0  0  0  0  0  0  0
   -4.2455    1.6374    0.5171 H   0  0  0  0  0  0  0  0  0  0  0  0
   -4.4460    3.0602   -0.4260 H   0  0  0  0  0  0  0  0  0  0  0  0
   -2.6994    3.2642    1.2997 S   0  0  0  0  0  0  0  0  0  0  0  0
   -3.1368    4.9553    1.7239 C   0  0  0  0  0  0  0  0  0  0  0  0
   -3.5914    5.3866    0.9444 H   0  0  0  0  0  0  0  0  0  0  0  0
   -3.7544    4.9517    2.5104 H   0  0  0  0  0  0  0  0  0  0  0  0
   -2.3079    5.4655    1.9518 H   0  0  0  0  0  0  0  0  0  0  0  0
  1  5  1  0
  5  8  1  0
  1  2  1  0
  1  3  1  0
  1  4  1  0
  5  6  1  0
  5  7  1  0
  8  9  1  0
  8 10  1  0
  8 11  1  0
 12 16  1  0
 16 17  1  0
 12 13  1  0
 12 14  1  0
 12 15  1  0
 17 18  1  0
 17 19  1  0
 17 20  1  0
M  CHG  1   8   1
M  END
>  <PDB_ID>  (1570) 
pdb5ex6

>  <RESIDUE_NAME>  (1570) 
LYS   MET

>  <FRAG_NAME>  (1570) 
ETAM   MSM

>  <FRAG_ATOM_NUM>  (1570) 
fragi: 11  fragj: 9

>  <atom.prop.CHAIN_ID>  (1570) 
A A A A A A A A A A A Z Z Z Z Z Z Z Z Z

>  <atom.prop.IS_HEAVY_ATOM>  (1570) 
1 0 0 0 1 0 0 1 0 0 0 1 0 0 0 1 1 0 0 0

>  <DIFUSE_FUNC_ATOM>  (1570) 
n/a

>  <FINAL_SINGLE_POINT_ENERGY>  (1570) 
0

>  <NONCOV_INTER_ENERGY_QM>  (1570) 
0

>  <FF_Energy>  (1570) 
-4.17

>  <QM_Energy>  (1570) 
-12.04

>  <source>  (1570) 
ETAM_MSM

>  <Index>  (1570) 
9998

$$$$
ETAM-pdb6erk-A-LYS-122:MSM-pdb6erk-B-MET-154
     RDKit          3D

 20 18  0  0  0  0  0  0  0  0999 V2000
    1.2964    0.7688   -0.0000 C   0  0  0  0  0  0  0  0  0  0  0  0
    1.3027    1.4096    0.7445 H   0  0  0  0  0  0  0  0  0  0  0  0
    1.4242    1.2038   -0.8716 H   0  0  0  0  0  0  0  0  0  0  0  0
    2.1225    0.0740    0.1514 H   0  0  0  0  0  0  0  0  0  0  0  0
    0.0000    0.0000    0.0000 C   0  0  0  0  0  0  0  0  0  0  0  0
   -0.0151   -0.6307   -0.8160 H   0  0  0  0  0  0  0  0  0  0  0  0
   -0.0152   -0.6304    0.8165 H   0  0  0  0  0  0  0  0  0  0  0  0
   -1.2964    0.7786    0.0000 N   0  0  0  0  0  4  0  0  0  0  0  0
   -1.3323    1.3403   -0.8214 H   0  0  0  0  0  0  0  0  0  0  0  0
   -2.0559    0.1346    0.0105 H   0  0  0  0  0  0  0  0  0  0  0  0
   -1.3231    1.3554    0.8113 H   0  0  0  0  0  0  0  0  0  0  0  0
   -4.4152   -2.2141    0.0369 C   0  0  0  0  0  0  0  0  0  0  0  0
   -4.7654   -1.6677   -0.7428 H   0  0  0  0  0  0  0  0  0  0  0  0
   -4.7655   -1.7828    0.8854 H   0  0  0  0  0  0  0  0  0  0  0  0
   -4.7939   -3.2336   -0.0356 H   0  0  0  0  0  0  0  0  0  0  0  0
   -2.6006   -2.2184    0.0374 S   0  0  0  0  0  0  0  0  0  0  0  0
   -2.2583   -2.8928   -1.5878 C   0  0  0  0  0  0  0  0  0  0  0  0
   -3.1203   -3.0917   -2.0563 H   0  0  0  0  0  0  0  0  0  0  0  0
   -1.7350   -2.2284   -2.1233 H   0  0  0  0  0  0  0  0  0  0  0  0
   -1.7283   -3.7374   -1.4954 H   0  0  0  0  0  0  0  0  0  0  0  0
  1  5  1  0
  5  8  1  0
  1  2  1  0
  1  3  1  0
  1  4  1  0
  5  6  1  0
  5  7  1  0
  8  9  1  0
  8 10  1  0
  8 11  1  0
 12 16  1  0
 16 17  1  0
 12 13  1  0
 12 14  1  0
 12 15  1  0
 17 18  1  0
 17 19  1  0
 17 20  1  0
M  CHG  1   8   1
M  END
>  <PDB_ID>  (1571) 
pdb6erk

>  <RESIDUE_NAME>  (1571) 
LYS   MET

>  <FRAG_NAME>  (1571) 
ETAM   MSM

>  <FRAG_ATOM_NUM>  (1571) 
fragi: 11  fragj: 9

>  <atom.prop.CHAIN_ID>  (1571) 
A A A A A A A A A A A Z Z Z Z Z Z Z Z Z

>  <atom.prop.IS_HEAVY_ATOM>  (1571) 
1 0 0 0 1 0 0 1 0 0 0 1 0 0 0 1 1 0 0 0

>  <DIFUSE_FUNC_ATOM>  (1571) 
n/a

>  <FINAL_SINGLE_POINT_ENERGY>  (1571) 
0

>  <NONCOV_INTER_ENERGY_QM>  (1571) 
0

>  <FF_Energy>  (1571) 
-5.12

>  <QM_Energy>  (1571) 
-16.16

>  <source>  (1571) 
ETAM_MSM

>  <Index>  (1571) 
9999

$$$$
ETAM-pdb6f9q-C-LYS-10:MSM-pdb6f9q-C-MET-7
     RDKit          3D

 20 18  0  0  0  0  0  0  0  0999 V2000
    1.1892    0.9004   -0.0000 C   0  0  0  0  0  0  0  0  0  0  0  0
    1.0221    1.6677    0.6311 H   0  0  0  0  0  0  0  0  0  0  0  0
    1.3180    1.2756   -0.9265 H   0  0  0  0  0  0  0  0  0  0  0  0
    2.1129    0.4063    0.3012 H   0  0  0  0  0  0  0  0  0  0  0  0
    0.0000    0.0000    0.0000 C   0  0  0  0  0  0  0  0  0  0  0  0
   -0.0019   -0.5526   -0.8166 H   0  0  0  0  0  0  0  0  0  0  0  0
   -0.0028   -0.5523    0.8163 H   0  0  0  0  0  0  0  0  0  0  0  0
   -1.1892    0.8799    0.0000 N   0  0  0  0  0  4  0  0  0  0  0  0
   -1.7761    0.6511   -0.7777 H   0  0  0  0  0  0  0  0  0  0  0  0
   -1.7012    0.7521    0.8511 H   0  0  0  0  0  0  0  0  0  0  0  0
   -0.9005    1.8354   -0.0729 H   0  0  0  0  0  0  0  0  0  0  0  0
   -2.2667   -4.0459   -1.8631 C   0  0  0  0  0  0  0  0  0  0  0  0
   -2.7173   -4.8067   -2.3336 H   0  0  0  0  0  0  0  0  0  0  0  0
   -1.7676   -4.3981   -1.0704 H   0  0  0  0  0  0  0  0  0  0  0  0
   -1.5800   -3.5421   -2.5433 H   0  0  0  0  0  0  0  0  0  0  0  0
   -3.5103   -2.8195   -1.3236 S   0  0  0  0  0  0  0  0  0  0  0  0
   -2.4330   -1.6113   -0.5454 C   0  0  0  0  0  0  0  0  0  0  0  0
   -2.5168   -1.6814    0.4479 H   0  0  0  0  0  0  0  0  0  0  0  0
   -1.4857   -1.7875   -0.8140 H   0  0  0  0  0  0  0  0  0  0  0  0
   -2.6967   -0.6925   -0.8386 H   0  0  0  0  0  0  0  0  0  0  0  0
  1  5  1  0
  5  8  1  0
  1  2  1  0
  1  3  1  0
  1  4  1  0
  5  6  1  0
  5  7  1  0
  8  9  1  0
  8 10  1  0
  8 11  1  0
 12 16  1  0
 16 17  1  0
 12 13  1  0
 12 14  1  0
 12 15  1  0
 17 18  1  0
 17 19  1  0
 17 20  1  0
M  CHG  1   8   1
M  END
>  <PDB_ID>  (1572) 
pdb6f9q

>  <RESIDUE_NAME>  (1572) 
LYS   MET

>  <FRAG_NAME>  (1572) 
ETAM   MSM

>  <FRAG_ATOM_NUM>  (1572) 
fragi: 11  fragj: 9

>  <atom.prop.CHAIN_ID>  (1572) 
A A A A A A A A A A A Z Z Z Z Z Z Z Z Z

>  <atom.prop.IS_HEAVY_ATOM>  (1572) 
1 0 0 0 1 0 0 1 0 0 0 1 0 0 0 1 1 0 0 0

>  <DIFUSE_FUNC_ATOM>  (1572) 
n/a

>  <FINAL_SINGLE_POINT_ENERGY>  (1572) 
0

>  <NONCOV_INTER_ENERGY_QM>  (1572) 
0

>  <FF_Energy>  (1572) 
12.39

>  <QM_Energy>  (1572) 
4.72

>  <source>  (1572) 
ETAM_MSM

>  <Index>  (1572) 
10025

$$$$
ETAM-pdb6fbb-A-LYS-9:MSM-pdb6fbb-A-MET-1
     RDKit          3D

 20 18  0  0  0  0  0  0  0  0999 V2000
    1.2478    0.8886   -0.0000 C   0  0  0  0  0  0  0  0  0  0  0  0
    1.2199    1.4568    0.7856 H   0  0  0  0  0  0  0  0  0  0  0  0
    1.2403    1.4262   -0.8076 H   0  0  0  0  0  0  0  0  0  0  0  0
    2.1538    0.2829    0.0225 H   0  0  0  0  0  0  0  0  0  0  0  0
    0.0000    0.0000    0.0000 C   0  0  0  0  0  0  0  0  0  0  0  0
    0.0063   -0.5562   -0.7944 H   0  0  0  0  0  0  0  0  0  0  0  0
    0.0067   -0.5555    0.7950 H   0  0  0  0  0  0  0  0  0  0  0  0
   -1.2478    0.7848    0.0000 N   0  0  0  0  0  4  0  0  0  0  0  0
   -1.9506    0.2395    0.0007 H   0  0  0  0  0  0  0  0  0  0  0  0
   -1.2818    1.3012    0.7248 H   0  0  0  0  0  0  0  0  0  0  0  0
   -1.2823    1.3011   -0.7244 H   0  0  0  0  0  0  0  0  0  0  0  0
   -1.5351    2.4926    4.1743 C   0  0  0  0  0  0  0  0  0  0  0  0
   -1.2165    1.8489    4.8257 H   0  0  0  0  0  0  0  0  0  0  0  0
   -2.3721    2.1798    3.7974 H   0  0  0  0  0  0  0  0  0  0  0  0
   -1.7257    3.4332    4.6912 H   0  0  0  0  0  0  0  0  0  0  0  0
   -0.3369    2.5315    2.8397 S   0  0  0  0  0  0  0  0  0  0  0  0
   -0.9882    3.8418    1.8388 C   0  0  0  0  0  0  0  0  0  0  0  0
   -0.4147    3.9640    1.0659 H   0  0  0  0  0  0  0  0  0  0  0  0
   -1.8845    3.6043    1.5531 H   0  0  0  0  0  0  0  0  0  0  0  0
   -1.0142    4.6568    2.3645 H   0  0  0  0  0  0  0  0  0  0  0  0
  1  5  1  0
  5  8  1  0
  1  2  1  0
  1  3  1  0
  1  4  1  0
  5  6  1  0
  5  7  1  0
  8  9  1  0
  8 10  1  0
  8 11  1  0
 12 16  1  0
 16 17  1  0
 12 13  1  0
 12 14  1  0
 12 15  1  0
 17 18  1  0
 17 19  1  0
 17 20  1  0
M  CHG  1   8   1
M  END
>  <PDB_ID>  (1573) 
pdb6fbb

>  <RESIDUE_NAME>  (1573) 
LYS   MET

>  <FRAG_NAME>  (1573) 
ETAM   MSM

>  <FRAG_ATOM_NUM>  (1573) 
fragi: 11  fragj: 9

>  <atom.prop.CHAIN_ID>  (1573) 
A A A A A A A A A A A Z Z Z Z Z Z Z Z Z

>  <atom.prop.IS_HEAVY_ATOM>  (1573) 
1 0 0 0 1 0 0 1 0 0 0 1 0 0 0 1 1 0 0 0

>  <DIFUSE_FUNC_ATOM>  (1573) 
n/a

>  <FINAL_SINGLE_POINT_ENERGY>  (1573) 
0

>  <NONCOV_INTER_ENERGY_QM>  (1573) 
0

>  <FF_Energy>  (1573) 
-4.3

>  <QM_Energy>  (1573) 
-12.48

>  <source>  (1573) 
ETAM_MSM

>  <Index>  (1573) 
10033

$$$$
ETAM-pdb6fbz-A-LYS-217:MSM-pdb6fbz-A-MET-227
     RDKit          3D

 20 18  0  0  0  0  0  0  0  0999 V2000
    1.2164    0.8432    0.0000 C   0  0  0  0  0  0  0  0  0  0  0  0
    1.1881    1.4245    0.7756 H   0  0  0  0  0  0  0  0  0  0  0  0
    1.2295    1.3661   -0.8171 H   0  0  0  0  0  0  0  0  0  0  0  0
    2.1063    0.2155    0.0464 H   0  0  0  0  0  0  0  0  0  0  0  0
    0.0000    0.0000    0.0000 C   0  0  0  0  0  0  0  0  0  0  0  0
   -0.0026   -0.5549   -0.7958 H   0  0  0  0  0  0  0  0  0  0  0  0
   -0.0026   -0.5555    0.7957 H   0  0  0  0  0  0  0  0  0  0  0  0
   -1.2164    0.7983   -0.0000 N   0  0  0  0  0  4  0  0  0  0  0  0
   -1.9292    0.2660   -0.0000 H   0  0  0  0  0  0  0  0  0  0  0  0
   -1.2408    1.3146    0.7245 H   0  0  0  0  0  0  0  0  0  0  0  0
   -1.2405    1.3150   -0.7245 H   0  0  0  0  0  0  0  0  0  0  0  0
   -3.7728    3.3194    3.7658 C   0  0  0  0  0  0  0  0  0  0  0  0
   -4.2877    2.6284    4.2120 H   0  0  0  0  0  0  0  0  0  0  0  0
   -4.2465    4.1622    3.8373 H   0  0  0  0  0  0  0  0  0  0  0  0
   -2.8247    3.4231    4.2934 H   0  0  0  0  0  0  0  0  0  0  0  0
   -3.7224    2.8842    1.9874 S   0  0  0  0  0  0  0  0  0  0  0  0
   -5.4603    2.4448    1.6031 C   0  0  0  0  0  0  0  0  0  0  0  0
   -5.5239    2.1986    0.6673 H   0  0  0  0  0  0  0  0  0  0  0  0
   -5.7277    1.6982    2.1617 H   0  0  0  0  0  0  0  0  0  0  0  0
   -6.0263    3.2122    1.7831 H   0  0  0  0  0  0  0  0  0  0  0  0
  1  5  1  0
  5  8  1  0
  1  2  1  0
  1  3  1  0
  1  4  1  0
  5  6  1  0
  5  7  1  0
  8  9  1  0
  8 10  1  0
  8 11  1  0
 12 16  1  0
 16 17  1  0
 12 13  1  0
 12 14  1  0
 12 15  1  0
 17 18  1  0
 17 19  1  0
 17 20  1  0
M  CHG  1   8   1
M  END
>  <PDB_ID>  (1574) 
pdb6fbz

>  <RESIDUE_NAME>  (1574) 
LYS   MET

>  <FRAG_NAME>  (1574) 
ETAM   MSM

>  <FRAG_ATOM_NUM>  (1574) 
fragi: 11  fragj: 9

>  <atom.prop.CHAIN_ID>  (1574) 
A A A A A A A A A A A Z Z Z Z Z Z Z Z Z

>  <atom.prop.IS_HEAVY_ATOM>  (1574) 
1 0 0 0 1 0 0 1 0 0 0 1 0 0 0 1 1 0 0 0

>  <DIFUSE_FUNC_ATOM>  (1574) 
n/a

>  <FINAL_SINGLE_POINT_ENERGY>  (1574) 
0

>  <NONCOV_INTER_ENERGY_QM>  (1574) 
0

>  <FF_Energy>  (1574) 
-4.41

>  <QM_Energy>  (1574) 
-11.56

>  <source>  (1574) 
ETAM_MSM

>  <Index>  (1574) 
10036

$$$$
ETAM-pdb5f5y-A-LYS-361:MSM-pdb5f5y-A-MET-357
     RDKit          3D

 20 18  0  0  0  0  0  0  0  0999 V2000
    1.2468    0.8651   -0.0000 C   0  0  0  0  0  0  0  0  0  0  0  0
    1.1538    1.5546   -0.7112 H   0  0  0  0  0  0  0  0  0  0  0  0
    2.0347    0.2855   -0.1800 H   0  0  0  0  0  0  0  0  0  0  0  0
    1.3813    1.3614    0.9611 H   0  0  0  0  0  0  0  0  0  0  0  0
    0.0000    0.0000    0.0000 C   0  0  0  0  0  0  0  0  0  0  0  0
    0.0095   -0.5860   -0.8164 H   0  0  0  0  0  0  0  0  0  0  0  0
    0.0089   -0.5865    0.8169 H   0  0  0  0  0  0  0  0  0  0  0  0
   -1.2468    0.8138    0.0000 N   0  0  0  0  0  4  0  0  0  0  0  0
   -1.9353    0.3648   -0.5684 H   0  0  0  0  0  0  0  0  0  0  0  0
   -1.5874    0.8974    0.9361 H   0  0  0  0  0  0  0  0  0  0  0  0
   -1.0495    1.7220   -0.3678 H   0  0  0  0  0  0  0  0  0  0  0  0
   -3.1110    2.4137    1.2277 C   0  0  0  0  0  0  0  0  0  0  0  0
   -2.1459    2.2746    0.8840 H   0  0  0  0  0  0  0  0  0  0  0  0
   -3.0169    2.4147    2.2576 H   0  0  0  0  0  0  0  0  0  0  0  0
   -3.4420    3.4043    0.9159 H   0  0  0  0  0  0  0  0  0  0  0  0
   -4.1801    1.0683    0.6873 S   0  0  0  0  0  0  0  0  0  0  0  0
   -4.0583    1.2176   -1.0922 C   0  0  0  0  0  0  0  0  0  0  0  0
   -3.5217    2.0302   -1.3260 H   0  0  0  0  0  0  0  0  0  0  0  0
   -3.6099    0.4053   -1.4676 H   0  0  0  0  0  0  0  0  0  0  0  0
   -4.9747    1.3020   -1.4867 H   0  0  0  0  0  0  0  0  0  0  0  0
  1  5  1  0
  5  8  1  0
  1  2  1  0
  1  3  1  0
  1  4  1  0
  5  6  1  0
  5  7  1  0
  8  9  1  0
  8 10  1  0
  8 11  1  0
 12 16  1  0
 16 17  1  0
 12 13  1  0
 12 14  1  0
 12 15  1  0
 17 18  1  0
 17 19  1  0
 17 20  1  0
M  CHG  1   8   1
M  END
>  <PDB_ID>  (1575) 
pdb5f5y

>  <RESIDUE_NAME>  (1575) 
LYS   MET

>  <FRAG_NAME>  (1575) 
ETAM   MSM

>  <FRAG_ATOM_NUM>  (1575) 
fragi: 11  fragj: 9

>  <atom.prop.CHAIN_ID>  (1575) 
A A A A A A A A A A A Z Z Z Z Z Z Z Z Z

>  <atom.prop.IS_HEAVY_ATOM>  (1575) 
1 0 0 0 1 0 0 1 0 0 0 1 0 0 0 1 1 0 0 0

>  <DIFUSE_FUNC_ATOM>  (1575) 
n/a

>  <FINAL_SINGLE_POINT_ENERGY>  (1575) 
0

>  <NONCOV_INTER_ENERGY_QM>  (1575) 
0

>  <FF_Energy>  (1575) 
34.71

>  <QM_Energy>  (1575) 
7.76

>  <source>  (1575) 
ETAM_MSM

>  <Index>  (1575) 
10037

$$$$
ETAM-pdb5f4b-A-LYS-88:MSM-pdb5f4b-B-MET-82
     RDKit          3D

 20 18  0  0  0  0  0  0  0  0999 V2000
    1.2469    0.8696    0.0000 C   0  0  0  0  0  0  0  0  0  0  0  0
    2.0396    0.2872   -0.1333 H   0  0  0  0  0  0  0  0  0  0  0  0
    1.3027    1.3432    0.8702 H   0  0  0  0  0  0  0  0  0  0  0  0
    1.2089    1.6056   -0.8032 H   0  0  0  0  0  0  0  0  0  0  0  0
    0.0000    0.0000    0.0000 C   0  0  0  0  0  0  0  0  0  0  0  0
    0.0112   -0.5844   -0.8157 H   0  0  0  0  0  0  0  0  0  0  0  0
    0.0103   -0.5848    0.8162 H   0  0  0  0  0  0  0  0  0  0  0  0
   -1.2469    0.8142   -0.0000 N   0  0  0  0  0  4  0  0  0  0  0  0
   -1.7974    0.5768    0.7998 H   0  0  0  0  0  0  0  0  0  0  0  0
   -1.0087    1.7848    0.0331 H   0  0  0  0  0  0  0  0  0  0  0  0
   -1.7661    0.6242   -0.8325 H   0  0  0  0  0  0  0  0  0  0  0  0
   -3.4317   -3.3267   -2.2274 C   0  0  0  0  0  0  0  0  0  0  0  0
   -3.0826   -4.2890   -2.2120 H   0  0  0  0  0  0  0  0  0  0  0  0
   -4.3233   -3.3626   -2.7293 H   0  0  0  0  0  0  0  0  0  0  0  0
   -3.6197   -3.0072   -1.2024 H   0  0  0  0  0  0  0  0  0  0  0  0
   -2.2683   -2.2408   -3.0742 S   0  0  0  0  0  0  0  0  0  0  0  0
   -0.7215   -2.7683   -2.3402 C   0  0  0  0  0  0  0  0  0  0  0  0
   -0.1304   -3.1599   -3.0470 H   0  0  0  0  0  0  0  0  0  0  0  0
   -0.2630   -1.9828   -1.9228 H   0  0  0  0  0  0  0  0  0  0  0  0
   -0.9016   -3.4588   -1.6376 H   0  0  0  0  0  0  0  0  0  0  0  0
  1  5  1  0
  5  8  1  0
  1  2  1  0
  1  3  1  0
  1  4  1  0
  5  6  1  0
  5  7  1  0
  8  9  1  0
  8 10  1  0
  8 11  1  0
 12 16  1  0
 16 17  1  0
 12 13  1  0
 12 14  1  0
 12 15  1  0
 17 18  1  0
 17 19  1  0
 17 20  1  0
M  CHG  1   8   1
M  END
>  <PDB_ID>  (1576) 
pdb5f4b

>  <RESIDUE_NAME>  (1576) 
LYS   MET

>  <FRAG_NAME>  (1576) 
ETAM   MSM

>  <FRAG_ATOM_NUM>  (1576) 
fragi: 11  fragj: 9

>  <atom.prop.CHAIN_ID>  (1576) 
A A A A A A A A A A A Z Z Z Z Z Z Z Z Z

>  <atom.prop.IS_HEAVY_ATOM>  (1576) 
1 0 0 0 1 0 0 1 0 0 0 1 0 0 0 1 1 0 0 0

>  <DIFUSE_FUNC_ATOM>  (1576) 
n/a

>  <FINAL_SINGLE_POINT_ENERGY>  (1576) 
0

>  <NONCOV_INTER_ENERGY_QM>  (1576) 
0

>  <FF_Energy>  (1576) 
1.01

>  <QM_Energy>  (1576) 
-4.13

>  <source>  (1576) 
ETAM_MSM

>  <Index>  (1576) 
10040

$$$$
ETAM-pdb6f9h-A-LYS-293:MSM-pdb6f9h-A-MET-49
     RDKit          3D

 20 18  0  0  0  0  0  0  0  0999 V2000
    1.2351    0.9147    0.0000 C   0  0  0  0  0  0  0  0  0  0  0  0
    1.3012    1.3495    0.8877 H   0  0  0  0  0  0  0  0  0  0  0  0
    1.1255    1.5859   -0.7197 H   0  0  0  0  0  0  0  0  0  0  0  0
    2.1444    0.3423   -0.1831 H   0  0  0  0  0  0  0  0  0  0  0  0
    0.0000    0.0000    0.0000 C   0  0  0  0  0  0  0  0  0  0  0  0
    0.0248   -0.5658   -0.8164 H   0  0  0  0  0  0  0  0  0  0  0  0
    0.0245   -0.5656    0.8168 H   0  0  0  0  0  0  0  0  0  0  0  0
   -1.2351    0.8258   -0.0000 N   0  0  0  0  0  4  0  0  0  0  0  0
   -1.7763    0.6149   -0.8143 H   0  0  0  0  0  0  0  0  0  0  0  0
   -1.7717    0.6223    0.8193 H   0  0  0  0  0  0  0  0  0  0  0  0
   -0.9884    1.7944   -0.0045 H   0  0  0  0  0  0  0  0  0  0  0  0
   -5.1470   -1.9875   -2.0346 C   0  0  0  0  0  0  0  0  0  0  0  0
   -5.5585   -1.9013   -1.1015 H   0  0  0  0  0  0  0  0  0  0  0  0
   -4.7356   -2.9235   -2.0738 H   0  0  0  0  0  0  0  0  0  0  0  0
   -5.9496   -1.9325   -2.7700 H   0  0  0  0  0  0  0  0  0  0  0  0
   -3.8593   -0.7147   -2.2842 S   0  0  0  0  0  0  0  0  0  0  0  0
   -3.0171   -1.4503   -3.6725 C   0  0  0  0  0  0  0  0  0  0  0  0
   -3.6872   -1.7790   -4.3411 H   0  0  0  0  0  0  0  0  0  0  0  0
   -2.4240   -0.7705   -4.1097 H   0  0  0  0  0  0  0  0  0  0  0  0
   -2.4582   -2.2224   -3.3610 H   0  0  0  0  0  0  0  0  0  0  0  0
  1  5  1  0
  5  8  1  0
  1  2  1  0
  1  3  1  0
  1  4  1  0
  5  6  1  0
  5  7  1  0
  8  9  1  0
  8 10  1  0
  8 11  1  0
 12 16  1  0
 16 17  1  0
 12 13  1  0
 12 14  1  0
 12 15  1  0
 17 18  1  0
 17 19  1  0
 17 20  1  0
M  CHG  1   8   1
M  END
>  <PDB_ID>  (1577) 
pdb6f9h

>  <RESIDUE_NAME>  (1577) 
LYS   MET

>  <FRAG_NAME>  (1577) 
ETAM   MSM

>  <FRAG_ATOM_NUM>  (1577) 
fragi: 11  fragj: 9

>  <atom.prop.CHAIN_ID>  (1577) 
A A A A A A A A A A A Z Z Z Z Z Z Z Z Z

>  <atom.prop.IS_HEAVY_ATOM>  (1577) 
1 0 0 0 1 0 0 1 0 0 0 1 0 0 0 1 1 0 0 0

>  <DIFUSE_FUNC_ATOM>  (1577) 
n/a

>  <FINAL_SINGLE_POINT_ENERGY>  (1577) 
0

>  <NONCOV_INTER_ENERGY_QM>  (1577) 
0

>  <FF_Energy>  (1577) 
-4.77

>  <QM_Energy>  (1577) 
-11.48

>  <source>  (1577) 
ETAM_MSM

>  <Index>  (1577) 
10041

$$$$
ETAM-pdb6fbz-A-LYS-206:MSM-pdb6fbz-A-MET-248
     RDKit          3D

 20 18  0  0  0  0  0  0  0  0999 V2000
    1.2745    0.8682   -0.0000 C   0  0  0  0  0  0  0  0  0  0  0  0
    2.0125    0.3076   -0.2848 H   0  0  0  0  0  0  0  0  0  0  0  0
    1.4243    1.1706    0.9094 H   0  0  0  0  0  0  0  0  0  0  0  0
    1.2253    1.7388   -0.6539 H   0  0  0  0  0  0  0  0  0  0  0  0
    0.0000    0.0000    0.0000 C   0  0  0  0  0  0  0  0  0  0  0  0
   -0.0020   -0.5558   -0.7946 H   0  0  0  0  0  0  0  0  0  0  0  0
   -0.0024   -0.5560    0.7948 H   0  0  0  0  0  0  0  0  0  0  0  0
   -1.2745    0.8224   -0.0000 N   0  0  0  0  0  4  0  0  0  0  0  0
   -1.9837    0.2839   -0.0000 H   0  0  0  0  0  0  0  0  0  0  0  0
   -1.3037    1.3382    0.7247 H   0  0  0  0  0  0  0  0  0  0  0  0
   -1.3032    1.3391   -0.7243 H   0  0  0  0  0  0  0  0  0  0  0  0
   -3.2706    1.4832   -2.3911 C   0  0  0  0  0  0  0  0  0  0  0  0
   -3.3472    1.9286   -1.5333 H   0  0  0  0  0  0  0  0  0  0  0  0
   -2.8959    0.5974   -2.2660 H   0  0  0  0  0  0  0  0  0  0  0  0
   -4.2670    1.3819   -2.8210 H   0  0  0  0  0  0  0  0  0  0  0  0
   -2.1043    2.4367   -3.4052 S   0  0  0  0  0  0  0  0  0  0  0  0
   -1.9393    1.2805   -4.7680 C   0  0  0  0  0  0  0  0  0  0  0  0
   -1.3282    1.6509   -5.4231 H   0  0  0  0  0  0  0  0  0  0  0  0
   -1.5941    0.4406   -4.4287 H   0  0  0  0  0  0  0  0  0  0  0  0
   -2.8116    1.1412   -5.1700 H   0  0  0  0  0  0  0  0  0  0  0  0
  1  5  1  0
  5  8  1  0
  1  2  1  0
  1  3  1  0
  1  4  1  0
  5  6  1  0
  5  7  1  0
  8  9  1  0
  8 10  1  0
  8 11  1  0
 12 16  1  0
 16 17  1  0
 12 13  1  0
 12 14  1  0
 12 15  1  0
 17 18  1  0
 17 19  1  0
 17 20  1  0
M  CHG  1   8   1
M  END
>  <PDB_ID>  (1578) 
pdb6fbz

>  <RESIDUE_NAME>  (1578) 
LYS   MET

>  <FRAG_NAME>  (1578) 
ETAM   MSM

>  <FRAG_ATOM_NUM>  (1578) 
fragi: 11  fragj: 9

>  <atom.prop.CHAIN_ID>  (1578) 
A A A A A A A A A A A Z Z Z Z Z Z Z Z Z

>  <atom.prop.IS_HEAVY_ATOM>  (1578) 
1 0 0 0 1 0 0 1 0 0 0 1 0 0 0 1 1 0 0 0

>  <DIFUSE_FUNC_ATOM>  (1578) 
n/a

>  <FINAL_SINGLE_POINT_ENERGY>  (1578) 
0

>  <NONCOV_INTER_ENERGY_QM>  (1578) 
0

>  <FF_Energy>  (1578) 
-1.21

>  <QM_Energy>  (1578) 
-6.35

>  <source>  (1578) 
ETAM_MSM

>  <Index>  (1578) 
10049

$$$$
ETAM-pdb5f74-A-LYS-76:MSM-pdb5f74-A-MET-80
     RDKit          3D

 20 18  0  0  0  0  0  0  0  0999 V2000
    1.2562    0.8728    0.0000 C   0  0  0  0  0  0  0  0  0  0  0  0
    1.2491    1.4367   -0.8194 H   0  0  0  0  0  0  0  0  0  0  0  0
    2.0536    0.2779    0.0044 H   0  0  0  0  0  0  0  0  0  0  0  0
    1.2994    1.5243    0.8728 H   0  0  0  0  0  0  0  0  0  0  0  0
    0.0000    0.0000    0.0000 C   0  0  0  0  0  0  0  0  0  0  0  0
    0.0167   -0.5877   -0.8164 H   0  0  0  0  0  0  0  0  0  0  0  0
    0.0158   -0.5873    0.8166 H   0  0  0  0  0  0  0  0  0  0  0  0
   -1.2562    0.8032   -0.0000 N   0  0  0  0  0  4  0  0  0  0  0  0
   -1.9862    0.2743    0.4305 H   0  0  0  0  0  0  0  0  0  0  0  0
   -1.1078    1.6485    0.5108 H   0  0  0  0  0  0  0  0  0  0  0  0
   -1.5097    1.0204   -0.9415 H   0  0  0  0  0  0  0  0  0  0  0  0
   -4.5946    3.3138   -1.1106 C   0  0  0  0  0  0  0  0  0  0  0  0
   -4.7324    3.9333   -0.3045 H   0  0  0  0  0  0  0  0  0  0  0  0
   -5.2175    3.6726   -1.8418 H   0  0  0  0  0  0  0  0  0  0  0  0
   -3.5658    3.4236   -1.4539 H   0  0  0  0  0  0  0  0  0  0  0  0
   -5.0206    1.6068   -0.6867 S   0  0  0  0  0  0  0  0  0  0  0  0
   -5.7922    1.0401   -2.2195 C   0  0  0  0  0  0  0  0  0  0  0  0
   -5.2941    1.4200   -2.9974 H   0  0  0  0  0  0  0  0  0  0  0  0
   -5.7607    0.0430   -2.2536 H   0  0  0  0  0  0  0  0  0  0  0  0
   -6.7410    1.3491   -2.2422 H   0  0  0  0  0  0  0  0  0  0  0  0
  1  5  1  0
  5  8  1  0
  1  2  1  0
  1  3  1  0
  1  4  1  0
  5  6  1  0
  5  7  1  0
  8  9  1  0
  8 10  1  0
  8 11  1  0
 12 16  1  0
 16 17  1  0
 12 13  1  0
 12 14  1  0
 12 15  1  0
 17 18  1  0
 17 19  1  0
 17 20  1  0
M  CHG  1   8   1
M  END
>  <PDB_ID>  (1579) 
pdb5f74

>  <RESIDUE_NAME>  (1579) 
LYS   MET

>  <FRAG_NAME>  (1579) 
ETAM   MSM

>  <FRAG_ATOM_NUM>  (1579) 
fragi: 11  fragj: 9

>  <atom.prop.CHAIN_ID>  (1579) 
A A A A A A A A A A A Z Z Z Z Z Z Z Z Z

>  <atom.prop.IS_HEAVY_ATOM>  (1579) 
1 0 0 0 1 0 0 1 0 0 0 1 0 0 0 1 1 0 0 0

>  <DIFUSE_FUNC_ATOM>  (1579) 
n/a

>  <FINAL_SINGLE_POINT_ENERGY>  (1579) 
0

>  <NONCOV_INTER_ENERGY_QM>  (1579) 
0

>  <FF_Energy>  (1579) 
-3.48

>  <QM_Energy>  (1579) 
-9.19

>  <source>  (1579) 
ETAM_MSM

>  <Index>  (1579) 
10050

$$$$
ETAM-pdb5f75-A-LYS-419:MSM-pdb5f75-A-MET-404
     RDKit          3D

 20 18  0  0  0  0  0  0  0  0999 V2000
    1.2136    0.8590    0.0000 C   0  0  0  0  0  0  0  0  0  0  0  0
    1.2020    1.4493    0.8073 H   0  0  0  0  0  0  0  0  0  0  0  0
    1.2209    1.4238   -0.8253 H   0  0  0  0  0  0  0  0  0  0  0  0
    2.1293    0.2682    0.0204 H   0  0  0  0  0  0  0  0  0  0  0  0
    0.0000    0.0000    0.0000 C   0  0  0  0  0  0  0  0  0  0  0  0
   -0.0030   -0.5794   -0.8165 H   0  0  0  0  0  0  0  0  0  0  0  0
   -0.0029   -0.5800    0.8169 H   0  0  0  0  0  0  0  0  0  0  0  0
   -1.2136    0.8393    0.0000 N   0  0  0  0  0  4  0  0  0  0  0  0
   -0.9915    1.7545    0.3423 H   0  0  0  0  0  0  0  0  0  0  0  0
   -1.5732    0.9143   -0.9319 H   0  0  0  0  0  0  0  0  0  0  0  0
   -1.9103    0.4265    0.5903 H   0  0  0  0  0  0  0  0  0  0  0  0
    0.9185    1.7937   -3.7446 C   0  0  0  0  0  0  0  0  0  0  0  0
    0.0323    1.3259   -3.5022 H   0  0  0  0  0  0  0  0  0  0  0  0
    1.6166    1.0345   -3.7667 H   0  0  0  0  0  0  0  0  0  0  0  0
    0.8199    2.1829   -4.7581 H   0  0  0  0  0  0  0  0  0  0  0  0
    1.3589    3.0339   -2.4759 S   0  0  0  0  0  0  0  0  0  0  0  0
   -0.2475    3.7979   -2.3325 C   0  0  0  0  0  0  0  0  0  0  0  0
   -0.4200    4.3778   -3.1318 H   0  0  0  0  0  0  0  0  0  0  0  0
   -0.9555    3.0912   -2.2800 H   0  0  0  0  0  0  0  0  0  0  0  0
   -0.2823    4.3609   -1.5041 H   0  0  0  0  0  0  0  0  0  0  0  0
  1  5  1  0
  5  8  1  0
  1  2  1  0
  1  3  1  0
  1  4  1  0
  5  6  1  0
  5  7  1  0
  8  9  1  0
  8 10  1  0
  8 11  1  0
 12 16  1  0
 16 17  1  0
 12 13  1  0
 12 14  1  0
 12 15  1  0
 17 18  1  0
 17 19  1  0
 17 20  1  0
M  CHG  1   8   1
M  END
>  <PDB_ID>  (1580) 
pdb5f75

>  <RESIDUE_NAME>  (1580) 
LYS   MET

>  <FRAG_NAME>  (1580) 
ETAM   MSM

>  <FRAG_ATOM_NUM>  (1580) 
fragi: 11  fragj: 9

>  <atom.prop.CHAIN_ID>  (1580) 
A A A A A A A A A A A Z Z Z Z Z Z Z Z Z

>  <atom.prop.IS_HEAVY_ATOM>  (1580) 
1 0 0 0 1 0 0 1 0 0 0 1 0 0 0 1 1 0 0 0

>  <DIFUSE_FUNC_ATOM>  (1580) 
n/a

>  <FINAL_SINGLE_POINT_ENERGY>  (1580) 
0

>  <NONCOV_INTER_ENERGY_QM>  (1580) 
0

>  <FF_Energy>  (1580) 
5.42

>  <QM_Energy>  (1580) 
-1.13

>  <source>  (1580) 
ETAM_MSM

>  <Index>  (1580) 
10053

$$$$
ETAM-pdb5f9z-A-LYS-468:MSM-pdb5f9z-A-MET-560
     RDKit          3D

 20 18  0  0  0  0  0  0  0  0999 V2000
    1.2379    0.8684   -0.0000 C   0  0  0  0  0  0  0  0  0  0  0  0
    1.2704    1.3785    0.8534 H   0  0  0  0  0  0  0  0  0  0  0  0
    1.1910    1.4915   -0.7746 H   0  0  0  0  0  0  0  0  0  0  0  0
    2.1417    0.2651   -0.0853 H   0  0  0  0  0  0  0  0  0  0  0  0
    0.0000    0.0000    0.0000 C   0  0  0  0  0  0  0  0  0  0  0  0
    0.0079   -0.5831   -0.8163 H   0  0  0  0  0  0  0  0  0  0  0  0
    0.0079   -0.5826    0.8163 H   0  0  0  0  0  0  0  0  0  0  0  0
   -1.2379    0.8214    0.0000 N   0  0  0  0  0  4  0  0  0  0  0  0
   -1.7140    0.7062   -0.8717 H   0  0  0  0  0  0  0  0  0  0  0  0
   -1.8341    0.5254    0.7469 H   0  0  0  0  0  0  0  0  0  0  0  0
   -0.9984    1.7846    0.1251 H   0  0  0  0  0  0  0  0  0  0  0  0
   -4.0213    1.5658    1.4701 C   0  0  0  0  0  0  0  0  0  0  0  0
   -3.3135    1.3593    2.1812 H   0  0  0  0  0  0  0  0  0  0  0  0
   -4.1974    0.6785    0.9889 H   0  0  0  0  0  0  0  0  0  0  0  0
   -4.9372    1.8807    1.9701 H   0  0  0  0  0  0  0  0  0  0  0  0
   -3.4120    2.8065    0.3098 S   0  0  0  0  0  0  0  0  0  0  0  0
   -4.7570    2.8600   -0.8715 C   0  0  0  0  0  0  0  0  0  0  0  0
   -5.1956    3.7599   -0.8400 H   0  0  0  0  0  0  0  0  0  0  0  0
   -4.4018    2.6969   -1.7930 H   0  0  0  0  0  0  0  0  0  0  0  0
   -5.4311    2.1547   -0.6460 H   0  0  0  0  0  0  0  0  0  0  0  0
  1  5  1  0
  5  8  1  0
  1  2  1  0
  1  3  1  0
  1  4  1  0
  5  6  1  0
  5  7  1  0
  8  9  1  0
  8 10  1  0
  8 11  1  0
 12 16  1  0
 16 17  1  0
 12 13  1  0
 12 14  1  0
 12 15  1  0
 17 18  1  0
 17 19  1  0
 17 20  1  0
M  CHG  1   8   1
M  END
>  <PDB_ID>  (1581) 
pdb5f9z

>  <RESIDUE_NAME>  (1581) 
LYS   MET

>  <FRAG_NAME>  (1581) 
ETAM   MSM

>  <FRAG_ATOM_NUM>  (1581) 
fragi: 11  fragj: 9

>  <atom.prop.CHAIN_ID>  (1581) 
A A A A A A A A A A A Z Z Z Z Z Z Z Z Z

>  <atom.prop.IS_HEAVY_ATOM>  (1581) 
1 0 0 0 1 0 0 1 0 0 0 1 0 0 0 1 1 0 0 0

>  <DIFUSE_FUNC_ATOM>  (1581) 
n/a

>  <FINAL_SINGLE_POINT_ENERGY>  (1581) 
0

>  <NONCOV_INTER_ENERGY_QM>  (1581) 
0

>  <FF_Energy>  (1581) 
-0.9

>  <QM_Energy>  (1581) 
-9.76

>  <source>  (1581) 
ETAM_MSM

>  <Index>  (1581) 
10062

$$$$
ETAM-pdb5f8v-A-LYS-280:MSM-pdb5f8v-A-MET-355
     RDKit          3D

 20 18  0  0  0  0  0  0  0  0999 V2000
    1.2510    0.8758    0.0000 C   0  0  0  0  0  0  0  0  0  0  0  0
    1.2019    1.4960    0.7777 H   0  0  0  0  0  0  0  0  0  0  0  0
    1.2750    1.3912   -0.8508 H   0  0  0  0  0  0  0  0  0  0  0  0
    2.1632    0.2844    0.0791 H   0  0  0  0  0  0  0  0  0  0  0  0
    0.0000    0.0000    0.0000 C   0  0  0  0  0  0  0  0  0  0  0  0
    0.0140   -0.5832   -0.8167 H   0  0  0  0  0  0  0  0  0  0  0  0
    0.0133   -0.5834    0.8159 H   0  0  0  0  0  0  0  0  0  0  0  0
   -1.2510    0.8131    0.0000 N   0  0  0  0  0  4  0  0  0  0  0  0
   -1.0501    1.7274   -0.3483 H   0  0  0  0  0  0  0  0  0  0  0  0
   -1.9308    0.3730   -0.5851 H   0  0  0  0  0  0  0  0  0  0  0  0
   -1.6020    0.8782    0.9328 H   0  0  0  0  0  0  0  0  0  0  0  0
   -2.5512    4.1760    2.0283 C   0  0  0  0  0  0  0  0  0  0  0  0
   -3.1407    3.4433    2.4494 H   0  0  0  0  0  0  0  0  0  0  0  0
   -3.0046    4.3919    1.1283 H   0  0  0  0  0  0  0  0  0  0  0  0
   -2.6073    5.0623    2.6603 H   0  0  0  0  0  0  0  0  0  0  0  0
   -0.8700    3.5714    1.7666 S   0  0  0  0  0  0  0  0  0  0  0  0
   -0.6370    2.6614    3.2943 C   0  0  0  0  0  0  0  0  0  0  0  0
   -1.2272    3.0452    4.0060 H   0  0  0  0  0  0  0  0  0  0  0  0
   -0.8724    1.6995    3.1506 H   0  0  0  0  0  0  0  0  0  0  0  0
    0.3189    2.7299    3.5819 H   0  0  0  0  0  0  0  0  0  0  0  0
  1  5  1  0
  5  8  1  0
  1  2  1  0
  1  3  1  0
  1  4  1  0
  5  6  1  0
  5  7  1  0
  8  9  1  0
  8 10  1  0
  8 11  1  0
 12 16  1  0
 16 17  1  0
 12 13  1  0
 12 14  1  0
 12 15  1  0
 17 18  1  0
 17 19  1  0
 17 20  1  0
M  CHG  1   8   1
M  END
>  <PDB_ID>  (1582) 
pdb5f8v

>  <RESIDUE_NAME>  (1582) 
LYS   MET

>  <FRAG_NAME>  (1582) 
ETAM   MSM

>  <FRAG_ATOM_NUM>  (1582) 
fragi: 11  fragj: 9

>  <atom.prop.CHAIN_ID>  (1582) 
A A A A A A A A A A A Z Z Z Z Z Z Z Z Z

>  <atom.prop.IS_HEAVY_ATOM>  (1582) 
1 0 0 0 1 0 0 1 0 0 0 1 0 0 0 1 1 0 0 0

>  <DIFUSE_FUNC_ATOM>  (1582) 
n/a

>  <FINAL_SINGLE_POINT_ENERGY>  (1582) 
0

>  <NONCOV_INTER_ENERGY_QM>  (1582) 
0

>  <FF_Energy>  (1582) 
-4.77

>  <QM_Energy>  (1582) 
-11.95

>  <source>  (1582) 
ETAM_MSM

>  <Index>  (1582) 
10066

$$$$
ETAM-pdb5fby-A-LYS-1809:MSM-pdb5fby-A-MET-1813
     RDKit          3D

 20 18  0  0  0  0  0  0  0  0999 V2000
    1.2461    0.8662    0.0000 C   0  0  0  0  0  0  0  0  0  0  0  0
    2.0481    0.2734    0.0597 H   0  0  0  0  0  0  0  0  0  0  0  0
    1.2150    1.4707    0.7946 H   0  0  0  0  0  0  0  0  0  0  0  0
    1.3313    1.4767   -0.8989 H   0  0  0  0  0  0  0  0  0  0  0  0
    0.0000    0.0000    0.0000 C   0  0  0  0  0  0  0  0  0  0  0  0
    0.0184   -0.5929   -0.8164 H   0  0  0  0  0  0  0  0  0  0  0  0
    0.0184   -0.5935    0.8160 H   0  0  0  0  0  0  0  0  0  0  0  0
   -1.2461    0.7915    0.0000 N   0  0  0  0  0  4  0  0  0  0  0  0
   -1.0299    1.7619    0.1228 H   0  0  0  0  0  0  0  0  0  0  0  0
   -1.7245    0.6676   -0.8713 H   0  0  0  0  0  0  0  0  0  0  0  0
   -1.8386    0.4879    0.7480 H   0  0  0  0  0  0  0  0  0  0  0  0
   -2.3016    4.3852   -2.4028 C   0  0  0  0  0  0  0  0  0  0  0  0
   -3.0172    3.9073   -2.9835 H   0  0  0  0  0  0  0  0  0  0  0  0
   -1.4067    3.9676   -2.7236 H   0  0  0  0  0  0  0  0  0  0  0  0
   -2.2997    5.4429   -2.6663 H   0  0  0  0  0  0  0  0  0  0  0  0
   -2.5719    4.0006   -0.6326 S   0  0  0  0  0  0  0  0  0  0  0  0
   -1.0305    4.4557    0.1486 C   0  0  0  0  0  0  0  0  0  0  0  0
   -0.5390    5.1092   -0.4298 H   0  0  0  0  0  0  0  0  0  0  0  0
   -1.2146    4.8755    1.0394 H   0  0  0  0  0  0  0  0  0  0  0  0
   -0.4640    3.6396    0.2797 H   0  0  0  0  0  0  0  0  0  0  0  0
  1  5  1  0
  5  8  1  0
  1  2  1  0
  1  3  1  0
  1  4  1  0
  5  6  1  0
  5  7  1  0
  8  9  1  0
  8 10  1  0
  8 11  1  0
 12 16  1  0
 16 17  1  0
 12 13  1  0
 12 14  1  0
 12 15  1  0
 17 18  1  0
 17 19  1  0
 17 20  1  0
M  CHG  1   8   1
M  END
>  <PDB_ID>  (1583) 
pdb5fby

>  <RESIDUE_NAME>  (1583) 
LYS   MET

>  <FRAG_NAME>  (1583) 
ETAM   MSM

>  <FRAG_ATOM_NUM>  (1583) 
fragi: 11  fragj: 9

>  <atom.prop.CHAIN_ID>  (1583) 
A A A A A A A A A A A Z Z Z Z Z Z Z Z Z

>  <atom.prop.IS_HEAVY_ATOM>  (1583) 
1 0 0 0 1 0 0 1 0 0 0 1 0 0 0 1 1 0 0 0

>  <DIFUSE_FUNC_ATOM>  (1583) 
n/a

>  <FINAL_SINGLE_POINT_ENERGY>  (1583) 
0

>  <NONCOV_INTER_ENERGY_QM>  (1583) 
0

>  <FF_Energy>  (1583) 
-3.68

>  <QM_Energy>  (1583) 
-9.46

>  <source>  (1583) 
ETAM_MSM

>  <Index>  (1583) 
10073

$$$$
ETAM-pdb5fig-E-LYS-83:MSM-pdb5fig-A-MET-106
     RDKit          3D

 20 18  0  0  0  0  0  0  0  0999 V2000
    1.2353    0.8958    0.0000 C   0  0  0  0  0  0  0  0  0  0  0  0
    1.2327    1.4327    0.8296 H   0  0  0  0  0  0  0  0  0  0  0  0
    1.2032    1.4725   -0.8019 H   0  0  0  0  0  0  0  0  0  0  0  0
    2.1377    0.2852   -0.0302 H   0  0  0  0  0  0  0  0  0  0  0  0
    0.0000    0.0000    0.0000 C   0  0  0  0  0  0  0  0  0  0  0  0
    0.0210   -0.5755   -0.8159 H   0  0  0  0  0  0  0  0  0  0  0  0
    0.0205   -0.5755    0.8167 H   0  0  0  0  0  0  0  0  0  0  0  0
   -1.2353    0.8155   -0.0000 N   0  0  0  0  0  4  0  0  0  0  0  0
   -1.9808    0.2946   -0.4181 H   0  0  0  0  0  0  0  0  0  0  0  0
   -1.4817    1.0511    0.9415 H   0  0  0  0  0  0  0  0  0  0  0  0
   -1.0831    1.6546   -0.5235 H   0  0  0  0  0  0  0  0  0  0  0  0
   -5.6832    1.8464   -0.0066 C   0  0  0  0  0  0  0  0  0  0  0  0
   -5.6388    0.9083    0.4526 H   0  0  0  0  0  0  0  0  0  0  0  0
   -6.4134    1.7084   -0.7423 H   0  0  0  0  0  0  0  0  0  0  0  0
   -6.0469    2.5748    0.7182 H   0  0  0  0  0  0  0  0  0  0  0  0
   -4.0834    2.2162   -0.7969 S   0  0  0  0  0  0  0  0  0  0  0  0
   -4.2624    3.8911   -1.3720 C   0  0  0  0  0  0  0  0  0  0  0  0
   -4.6175    3.8937   -2.3102 H   0  0  0  0  0  0  0  0  0  0  0  0
   -4.8996    4.3895   -0.7793 H   0  0  0  0  0  0  0  0  0  0  0  0
   -3.3728    4.3534   -1.3580 H   0  0  0  0  0  0  0  0  0  0  0  0
  1  5  1  0
  5  8  1  0
  1  2  1  0
  1  3  1  0
  1  4  1  0
  5  6  1  0
  5  7  1  0
  8  9  1  0
  8 10  1  0
  8 11  1  0
 12 16  1  0
 16 17  1  0
 12 13  1  0
 12 14  1  0
 12 15  1  0
 17 18  1  0
 17 19  1  0
 17 20  1  0
M  CHG  1   8   1
M  END
>  <PDB_ID>  (1584) 
pdb5fig

>  <RESIDUE_NAME>  (1584) 
LYS   MET

>  <FRAG_NAME>  (1584) 
ETAM   MSM

>  <FRAG_ATOM_NUM>  (1584) 
fragi: 11  fragj: 9

>  <atom.prop.CHAIN_ID>  (1584) 
A A A A A A A A A A A Z Z Z Z Z Z Z Z Z

>  <atom.prop.IS_HEAVY_ATOM>  (1584) 
1 0 0 0 1 0 0 1 0 0 0 1 0 0 0 1 1 0 0 0

>  <DIFUSE_FUNC_ATOM>  (1584) 
n/a

>  <FINAL_SINGLE_POINT_ENERGY>  (1584) 
0

>  <NONCOV_INTER_ENERGY_QM>  (1584) 
0

>  <FF_Energy>  (1584) 
-5.09

>  <QM_Energy>  (1584) 
-13.07

>  <source>  (1584) 
ETAM_MSM

>  <Index>  (1584) 
10090

$$$$
ETAM-pdb5f8v-B-LYS-280:MSM-pdb5f8v-B-MET-355
     RDKit          3D

 20 18  0  0  0  0  0  0  0  0999 V2000
    1.2458    0.8716    0.0000 C   0  0  0  0  0  0  0  0  0  0  0  0
    1.2155    1.4712    0.7933 H   0  0  0  0  0  0  0  0  0  0  0  0
    1.2601    1.4063   -0.8386 H   0  0  0  0  0  0  0  0  0  0  0  0
    2.1540    0.2710    0.0497 H   0  0  0  0  0  0  0  0  0  0  0  0
    0.0000    0.0000    0.0000 C   0  0  0  0  0  0  0  0  0  0  0  0
    0.0091   -0.5811   -0.8159 H   0  0  0  0  0  0  0  0  0  0  0  0
    0.0084   -0.5812    0.8162 H   0  0  0  0  0  0  0  0  0  0  0  0
   -1.2458    0.8226   -0.0000 N   0  0  0  0  0  4  0  0  0  0  0  0
   -1.9672    0.3276    0.4816 H   0  0  0  0  0  0  0  0  0  0  0  0
   -1.0670    1.6906    0.4606 H   0  0  0  0  0  0  0  0  0  0  0  0
   -1.5270    0.9935   -0.9429 H   0  0  0  0  0  0  0  0  0  0  0  0
   -2.6926    3.0467    3.1310 C   0  0  0  0  0  0  0  0  0  0  0  0
   -3.3345    2.2309    3.1672 H   0  0  0  0  0  0  0  0  0  0  0  0
   -3.0334    3.5893    2.3137 H   0  0  0  0  0  0  0  0  0  0  0  0
   -2.8573    3.6454    4.0268 H   0  0  0  0  0  0  0  0  0  0  0  0
   -0.9870    2.4973    2.8584 S   0  0  0  0  0  0  0  0  0  0  0  0
   -0.9261    1.0477    3.9204 C   0  0  0  0  0  0  0  0  0  0  0  0
   -0.4797    0.2972    3.4337 H   0  0  0  0  0  0  0  0  0  0  0  0
   -0.4090    1.2635    4.7482 H   0  0  0  0  0  0  0  0  0  0  0  0
   -1.8569    0.7783    4.1685 H   0  0  0  0  0  0  0  0  0  0  0  0
  1  5  1  0
  5  8  1  0
  1  2  1  0
  1  3  1  0
  1  4  1  0
  5  6  1  0
  5  7  1  0
  8  9  1  0
  8 10  1  0
  8 11  1  0
 12 16  1  0
 16 17  1  0
 12 13  1  0
 12 14  1  0
 12 15  1  0
 17 18  1  0
 17 19  1  0
 17 20  1  0
M  CHG  1   8   1
M  END
>  <PDB_ID>  (1585) 
pdb5f8v

>  <RESIDUE_NAME>  (1585) 
LYS   MET

>  <FRAG_NAME>  (1585) 
ETAM   MSM

>  <FRAG_ATOM_NUM>  (1585) 
fragi: 11  fragj: 9

>  <atom.prop.CHAIN_ID>  (1585) 
A A A A A A A A A A A Z Z Z Z Z Z Z Z Z

>  <atom.prop.IS_HEAVY_ATOM>  (1585) 
1 0 0 0 1 0 0 1 0 0 0 1 0 0 0 1 1 0 0 0

>  <DIFUSE_FUNC_ATOM>  (1585) 
n/a

>  <FINAL_SINGLE_POINT_ENERGY>  (1585) 
0

>  <NONCOV_INTER_ENERGY_QM>  (1585) 
0

>  <FF_Energy>  (1585) 
-5.13

>  <QM_Energy>  (1585) 
-14.15

>  <source>  (1585) 
ETAM_MSM

>  <Index>  (1585) 
10096

$$$$
ETAM-pdb6fsk-A-LYS-154:MSM-pdb6fsk-A-MET-77
     RDKit          3D

 20 18  0  0  0  0  0  0  0  0999 V2000
    1.2134    0.8475    0.0000 C   0  0  0  0  0  0  0  0  0  0  0  0
    1.1440    1.5381    0.6967 H   0  0  0  0  0  0  0  0  0  0  0  0
    1.3571    1.2323   -0.8935 H   0  0  0  0  0  0  0  0  0  0  0  0
    2.0665    0.2119    0.2376 H   0  0  0  0  0  0  0  0  0  0  0  0
    0.0000    0.0000    0.0000 C   0  0  0  0  0  0  0  0  0  0  0  0
   -0.0449   -0.5520   -0.8158 H   0  0  0  0  0  0  0  0  0  0  0  0
   -0.0457   -0.5518    0.8161 H   0  0  0  0  0  0  0  0  0  0  0  0
   -1.2134    0.9329   -0.0000 N   0  0  0  0  0  4  0  0  0  0  0  0
   -0.9751    1.7523   -0.5067 H   0  0  0  0  0  0  0  0  0  0  0  0
   -1.9700    0.4589   -0.4355 H   0  0  0  0  0  0  0  0  0  0  0  0
   -1.4343    1.1544    0.9419 H   0  0  0  0  0  0  0  0  0  0  0  0
   -2.3854   -2.6983    0.6860 C   0  0  0  0  0  0  0  0  0  0  0  0
   -1.3977   -2.4828    0.7601 H   0  0  0  0  0  0  0  0  0  0  0  0
   -2.5636   -2.9717   -0.2741 H   0  0  0  0  0  0  0  0  0  0  0  0
   -2.6369   -3.5188    1.3579 H   0  0  0  0  0  0  0  0  0  0  0  0
   -3.3738   -1.2381    1.1107 S   0  0  0  0  0  0  0  0  0  0  0  0
   -4.9269   -1.6340    0.2792 C   0  0  0  0  0  0  0  0  0  0  0  0
   -5.6490   -1.0398    0.6312 H   0  0  0  0  0  0  0  0  0  0  0  0
   -4.8203   -1.4890   -0.7031 H   0  0  0  0  0  0  0  0  0  0  0  0
   -5.1603   -2.5891    0.4562 H   0  0  0  0  0  0  0  0  0  0  0  0
  1  5  1  0
  5  8  1  0
  1  2  1  0
  1  3  1  0
  1  4  1  0
  5  6  1  0
  5  7  1  0
  8  9  1  0
  8 10  1  0
  8 11  1  0
 12 16  1  0
 16 17  1  0
 12 13  1  0
 12 14  1  0
 12 15  1  0
 17 18  1  0
 17 19  1  0
 17 20  1  0
M  CHG  1   8   1
M  END
>  <PDB_ID>  (1586) 
pdb6fsk

>  <RESIDUE_NAME>  (1586) 
LYS   MET

>  <FRAG_NAME>  (1586) 
ETAM   MSM

>  <FRAG_ATOM_NUM>  (1586) 
fragi: 11  fragj: 9

>  <atom.prop.CHAIN_ID>  (1586) 
A A A A A A A A A A A Z Z Z Z Z Z Z Z Z

>  <atom.prop.IS_HEAVY_ATOM>  (1586) 
1 0 0 0 1 0 0 1 0 0 0 1 0 0 0 1 1 0 0 0

>  <DIFUSE_FUNC_ATOM>  (1586) 
n/a

>  <FINAL_SINGLE_POINT_ENERGY>  (1586) 
0

>  <NONCOV_INTER_ENERGY_QM>  (1586) 
0

>  <FF_Energy>  (1586) 
-4.74

>  <QM_Energy>  (1586) 
-13.25

>  <source>  (1586) 
ETAM_MSM

>  <Index>  (1586) 
10100

$$$$
ETAM-pdb6fsk-B-LYS-154:MSM-pdb6fsk-B-MET-77
     RDKit          3D

 20 18  0  0  0  0  0  0  0  0999 V2000
    1.2482    0.8811   -0.0000 C   0  0  0  0  0  0  0  0  0  0  0  0
    1.3429    1.2881    0.8897 H   0  0  0  0  0  0  0  0  0  0  0  0
    1.1552    1.5540   -0.7105 H   0  0  0  0  0  0  0  0  0  0  0  0
    2.1170    0.2554   -0.2046 H   0  0  0  0  0  0  0  0  0  0  0  0
    0.0000    0.0000    0.0000 C   0  0  0  0  0  0  0  0  0  0  0  0
    0.0065   -0.5729   -0.8160 H   0  0  0  0  0  0  0  0  0  0  0  0
    0.0060   -0.5735    0.8163 H   0  0  0  0  0  0  0  0  0  0  0  0
   -1.2482    0.8379    0.0000 N   0  0  0  0  0  4  0  0  0  0  0  0
   -1.2469    1.4219    0.8084 H   0  0  0  0  0  0  0  0  0  0  0  0
   -1.2623    1.3982   -0.8247 H   0  0  0  0  0  0  0  0  0  0  0  0
   -2.0424    0.2353    0.0159 H   0  0  0  0  0  0  0  0  0  0  0  0
   -2.1422   -2.8097   -0.6241 C   0  0  0  0  0  0  0  0  0  0  0  0
   -1.4087   -2.7642    0.0385 H   0  0  0  0  0  0  0  0  0  0  0  0
   -1.8420   -2.4935   -1.5124 H   0  0  0  0  0  0  0  0  0  0  0  0
   -2.5782   -3.8074   -0.6755 H   0  0  0  0  0  0  0  0  0  0  0  0
   -3.5313   -1.7732   -0.0553 S   0  0  0  0  0  0  0  0  0  0  0  0
   -4.4126   -1.6977   -1.6241 C   0  0  0  0  0  0  0  0  0  0  0  0
   -3.7992   -1.3481   -2.3319 H   0  0  0  0  0  0  0  0  0  0  0  0
   -4.7248   -2.6139   -1.8731 H   0  0  0  0  0  0  0  0  0  0  0  0
   -5.2002   -1.0886   -1.5323 H   0  0  0  0  0  0  0  0  0  0  0  0
  1  5  1  0
  5  8  1  0
  1  2  1  0
  1  3  1  0
  1  4  1  0
  5  6  1  0
  5  7  1  0
  8  9  1  0
  8 10  1  0
  8 11  1  0
 12 16  1  0
 16 17  1  0
 12 13  1  0
 12 14  1  0
 12 15  1  0
 17 18  1  0
 17 19  1  0
 17 20  1  0
M  CHG  1   8   1
M  END
>  <PDB_ID>  (1587) 
pdb6fsk

>  <RESIDUE_NAME>  (1587) 
LYS   MET

>  <FRAG_NAME>  (1587) 
ETAM   MSM

>  <FRAG_ATOM_NUM>  (1587) 
fragi: 11  fragj: 9

>  <atom.prop.CHAIN_ID>  (1587) 
A A A A A A A A A A A Z Z Z Z Z Z Z Z Z

>  <atom.prop.IS_HEAVY_ATOM>  (1587) 
1 0 0 0 1 0 0 1 0 0 0 1 0 0 0 1 1 0 0 0

>  <DIFUSE_FUNC_ATOM>  (1587) 
n/a

>  <FINAL_SINGLE_POINT_ENERGY>  (1587) 
0

>  <NONCOV_INTER_ENERGY_QM>  (1587) 
0

>  <FF_Energy>  (1587) 
-4.83

>  <QM_Energy>  (1587) 
-14.9

>  <source>  (1587) 
ETAM_MSM

>  <Index>  (1587) 
10101

$$$$
ETAM-pdb5fdn-A-LYS-832:MSM-pdb5fdn-A-MET-828
     RDKit          3D

 20 18  0  0  0  0  0  0  0  0999 V2000
    1.2564    0.8881    0.0000 C   0  0  0  0  0  0  0  0  0  0  0  0
    1.3290    1.3270    0.8747 H   0  0  0  0  0  0  0  0  0  0  0  0
    1.1855    1.5300   -0.7386 H   0  0  0  0  0  0  0  0  0  0  0  0
    2.1369    0.2648   -0.1559 H   0  0  0  0  0  0  0  0  0  0  0  0
    0.0000    0.0000    0.0000 C   0  0  0  0  0  0  0  0  0  0  0  0
    0.0275   -0.5854   -0.8163 H   0  0  0  0  0  0  0  0  0  0  0  0
    0.0273   -0.5857    0.8165 H   0  0  0  0  0  0  0  0  0  0  0  0
   -1.2564    0.7910   -0.0000 N   0  0  0  0  0  4  0  0  0  0  0  0
   -1.9245    0.3551    0.6028 H   0  0  0  0  0  0  0  0  0  0  0  0
   -1.0671    1.7175    0.3265 H   0  0  0  0  0  0  0  0  0  0  0  0
   -1.6239    0.8336   -0.9295 H   0  0  0  0  0  0  0  0  0  0  0  0
   -0.1067   -1.7975    3.9498 C   0  0  0  0  0  0  0  0  0  0  0  0
    0.4086   -2.3215    3.2233 H   0  0  0  0  0  0  0  0  0  0  0  0
   -1.0310   -2.2573    3.9915 H   0  0  0  0  0  0  0  0  0  0  0  0
    0.3949   -1.9684    4.9023 H   0  0  0  0  0  0  0  0  0  0  0  0
   -0.2811   -0.0515    3.4776 S   0  0  0  0  0  0  0  0  0  0  0  0
   -1.5285    0.5243    4.6498 C   0  0  0  0  0  0  0  0  0  0  0  0
   -2.1937   -0.2041    4.8062 H   0  0  0  0  0  0  0  0  0  0  0  0
   -1.0841    0.7650    5.5112 H   0  0  0  0  0  0  0  0  0  0  0  0
   -1.9884    1.3268    4.2727 H   0  0  0  0  0  0  0  0  0  0  0  0
  1  5  1  0
  5  8  1  0
  1  2  1  0
  1  3  1  0
  1  4  1  0
  5  6  1  0
  5  7  1  0
  8  9  1  0
  8 10  1  0
  8 11  1  0
 12 16  1  0
 16 17  1  0
 12 13  1  0
 12 14  1  0
 12 15  1  0
 17 18  1  0
 17 19  1  0
 17 20  1  0
M  CHG  1   8   1
M  END
>  <PDB_ID>  (1588) 
pdb5fdn

>  <RESIDUE_NAME>  (1588) 
LYS   MET

>  <FRAG_NAME>  (1588) 
ETAM   MSM

>  <FRAG_ATOM_NUM>  (1588) 
fragi: 11  fragj: 9

>  <atom.prop.CHAIN_ID>  (1588) 
A A A A A A A A A A A Z Z Z Z Z Z Z Z Z

>  <atom.prop.IS_HEAVY_ATOM>  (1588) 
1 0 0 0 1 0 0 1 0 0 0 1 0 0 0 1 1 0 0 0

>  <DIFUSE_FUNC_ATOM>  (1588) 
n/a

>  <FINAL_SINGLE_POINT_ENERGY>  (1588) 
0

>  <NONCOV_INTER_ENERGY_QM>  (1588) 
0

>  <FF_Energy>  (1588) 
-4.39

>  <QM_Energy>  (1588) 
-11.66

>  <source>  (1588) 
ETAM_MSM

>  <Index>  (1588) 
10112

$$$$
ETAM-pdb5fly-B-LYS-173:MSM-pdb5fly-B-MET-190
     RDKit          3D

 20 18  0  0  0  0  0  0  0  0999 V2000
    1.2744    0.8642   -0.0000 C   0  0  0  0  0  0  0  0  0  0  0  0
    1.2089    1.4982   -0.7303 H   0  0  0  0  0  0  0  0  0  0  0  0
    2.0357    0.2781   -0.1336 H   0  0  0  0  0  0  0  0  0  0  0  0
    1.4031    1.4077    0.9360 H   0  0  0  0  0  0  0  0  0  0  0  0
    0.0000    0.0000    0.0000 C   0  0  0  0  0  0  0  0  0  0  0  0
   -0.0013   -0.5573   -0.7929 H   0  0  0  0  0  0  0  0  0  0  0  0
   -0.0011   -0.5568    0.7947 H   0  0  0  0  0  0  0  0  0  0  0  0
   -1.2744    0.8091    0.0000 N   0  0  0  0  0  4  0  0  0  0  0  0
   -1.3067    1.3246   -0.7250 H   0  0  0  0  0  0  0  0  0  0  0  0
   -1.9790    0.2652    0.0003 H   0  0  0  0  0  0  0  0  0  0  0  0
   -1.3071    1.3255    0.7238 H   0  0  0  0  0  0  0  0  0  0  0  0
   -2.8375   -0.2667    4.1397 C   0  0  0  0  0  0  0  0  0  0  0  0
   -3.8061   -0.3058    4.0950 H   0  0  0  0  0  0  0  0  0  0  0  0
   -2.5387   -0.3828    5.0549 H   0  0  0  0  0  0  0  0  0  0  0  0
   -2.4162   -1.0588    3.5206 H   0  0  0  0  0  0  0  0  0  0  0  0
   -2.3193    1.3415    3.5836 S   0  0  0  0  0  0  0  0  0  0  0  0
   -0.6272    1.3498    4.1704 C   0  0  0  0  0  0  0  0  0  0  0  0
   -0.1473    0.6151    3.7579 H   0  0  0  0  0  0  0  0  0  0  0  0
   -0.2142    2.1940    3.9278 H   0  0  0  0  0  0  0  0  0  0  0  0
   -0.6277    1.2466    5.1341 H   0  0  0  0  0  0  0  0  0  0  0  0
  1  5  1  0
  5  8  1  0
  1  2  1  0
  1  3  1  0
  1  4  1  0
  5  6  1  0
  5  7  1  0
  8  9  1  0
  8 10  1  0
  8 11  1  0
 12 16  1  0
 16 17  1  0
 12 13  1  0
 12 14  1  0
 12 15  1  0
 17 18  1  0
 17 19  1  0
 17 20  1  0
M  CHG  1   8   1
M  END
>  <PDB_ID>  (1589) 
pdb5fly

>  <RESIDUE_NAME>  (1589) 
LYS   MET

>  <FRAG_NAME>  (1589) 
ETAM   MSM

>  <FRAG_ATOM_NUM>  (1589) 
fragi: 11  fragj: 9

>  <atom.prop.CHAIN_ID>  (1589) 
A A A A A A A A A A A Z Z Z Z Z Z Z Z Z

>  <atom.prop.IS_HEAVY_ATOM>  (1589) 
1 0 0 0 1 0 0 1 0 0 0 1 0 0 0 1 1 0 0 0

>  <DIFUSE_FUNC_ATOM>  (1589) 
n/a

>  <FINAL_SINGLE_POINT_ENERGY>  (1589) 
0

>  <NONCOV_INTER_ENERGY_QM>  (1589) 
0

>  <FF_Energy>  (1589) 
-3.95

>  <QM_Energy>  (1589) 
-10.66

>  <source>  (1589) 
ETAM_MSM

>  <Index>  (1589) 
10126

$$$$
ETAM-pdb5fvj-A-LYS-101:MSM-pdb5fvj-A-MET-1
     RDKit          3D

 20 18  0  0  0  0  0  0  0  0999 V2000
    1.2779    0.8523    0.0000 C   0  0  0  0  0  0  0  0  0  0  0  0
    1.2693    1.4254   -0.8157 H   0  0  0  0  0  0  0  0  0  0  0  0
    2.0615    0.2362   -0.0242 H   0  0  0  0  0  0  0  0  0  0  0  0
    1.3529    1.4897    0.8810 H   0  0  0  0  0  0  0  0  0  0  0  0
    0.0000    0.0000    0.0000 C   0  0  0  0  0  0  0  0  0  0  0  0
    0.0199   -0.6035   -0.8163 H   0  0  0  0  0  0  0  0  0  0  0  0
    0.0195   -0.6044    0.8167 H   0  0  0  0  0  0  0  0  0  0  0  0
   -1.2779    0.7731   -0.0000 N   0  0  0  0  0  4  0  0  0  0  0  0
   -2.0467    0.1382    0.0504 H   0  0  0  0  0  0  0  0  0  0  0  0
   -1.2927    1.3830    0.7907 H   0  0  0  0  0  0  0  0  0  0  0  0
   -1.3384    1.3093   -0.8405 H   0  0  0  0  0  0  0  0  0  0  0  0
   -4.9672    1.7016   -3.1245 C   0  0  0  0  0  0  0  0  0  0  0  0
   -4.3897    2.3340   -3.7027 H   0  0  0  0  0  0  0  0  0  0  0  0
   -5.9407    1.9720   -3.3443 H   0  0  0  0  0  0  0  0  0  0  0  0
   -4.8100    0.6828   -3.4786 H   0  0  0  0  0  0  0  0  0  0  0  0
   -4.6193    1.9432   -1.3730 S   0  0  0  0  0  0  0  0  0  0  0  0
   -5.8283    0.8535   -0.5935 C   0  0  0  0  0  0  0  0  0  0  0  0
   -6.6236    0.7629   -1.1917 H   0  0  0  0  0  0  0  0  0  0  0  0
   -5.4147   -0.0436   -0.4447 H   0  0  0  0  0  0  0  0  0  0  0  0
   -6.1075    1.2452    0.2822 H   0  0  0  0  0  0  0  0  0  0  0  0
  1  5  1  0
  5  8  1  0
  1  2  1  0
  1  3  1  0
  1  4  1  0
  5  6  1  0
  5  7  1  0
  8  9  1  0
  8 10  1  0
  8 11  1  0
 12 16  1  0
 16 17  1  0
 12 13  1  0
 12 14  1  0
 12 15  1  0
 17 18  1  0
 17 19  1  0
 17 20  1  0
M  CHG  1   8   1
M  END
>  <PDB_ID>  (1590) 
pdb5fvj

>  <RESIDUE_NAME>  (1590) 
LYS   MET

>  <FRAG_NAME>  (1590) 
ETAM   MSM

>  <FRAG_ATOM_NUM>  (1590) 
fragi: 11  fragj: 9

>  <atom.prop.CHAIN_ID>  (1590) 
A A A A A A A A A A A Z Z Z Z Z Z Z Z Z

>  <atom.prop.IS_HEAVY_ATOM>  (1590) 
1 0 0 0 1 0 0 1 0 0 0 1 0 0 0 1 1 0 0 0

>  <DIFUSE_FUNC_ATOM>  (1590) 
n/a

>  <FINAL_SINGLE_POINT_ENERGY>  (1590) 
0

>  <NONCOV_INTER_ENERGY_QM>  (1590) 
0

>  <FF_Energy>  (1590) 
-4.14

>  <QM_Energy>  (1590) 
-10.4

>  <source>  (1590) 
ETAM_MSM

>  <Index>  (1590) 
10136

$$$$
ETAM-pdb5fuv-A-LYS-381:MSM-pdb5fuv-A-MET-371
     RDKit          3D

 20 18  0  0  0  0  0  0  0  0999 V2000
    1.2466    0.8486   -0.0000 C   0  0  0  0  0  0  0  0  0  0  0  0
    1.2159    1.4664   -0.7956 H   0  0  0  0  0  0  0  0  0  0  0  0
    2.0473    0.2443   -0.1002 H   0  0  0  0  0  0  0  0  0  0  0  0
    1.3787    1.4511    0.8987 H   0  0  0  0  0  0  0  0  0  0  0  0
    0.0000    0.0000    0.0000 C   0  0  0  0  0  0  0  0  0  0  0  0
    0.0401   -0.6224   -0.8158 H   0  0  0  0  0  0  0  0  0  0  0  0
    0.0402   -0.6223    0.8158 H   0  0  0  0  0  0  0  0  0  0  0  0
   -1.2466    0.7203   -0.0000 N   0  0  0  0  0  4  0  0  0  0  0  0
   -1.1128    1.6637    0.3289 H   0  0  0  0  0  0  0  0  0  0  0  0
   -1.6328    0.7629   -0.9294 H   0  0  0  0  0  0  0  0  0  0  0  0
   -1.9184    0.2690    0.6002 H   0  0  0  0  0  0  0  0  0  0  0  0
    0.0469   -2.2869   -3.9592 C   0  0  0  0  0  0  0  0  0  0  0  0
    0.1137   -3.0687   -3.3209 H   0  0  0  0  0  0  0  0  0  0  0  0
    0.9373   -1.8076   -3.9509 H   0  0  0  0  0  0  0  0  0  0  0  0
   -0.1716   -2.6470   -4.9646 H   0  0  0  0  0  0  0  0  0  0  0  0
   -1.2797   -1.1326   -3.3832 S   0  0  0  0  0  0  0  0  0  0  0  0
   -0.8202    0.3627   -4.1927 C   0  0  0  0  0  0  0  0  0  0  0  0
   -1.3291    0.4657   -5.0543 H   0  0  0  0  0  0  0  0  0  0  0  0
   -1.0217    1.1555   -3.6059 H   0  0  0  0  0  0  0  0  0  0  0  0
    0.1643    0.3609   -4.4008 H   0  0  0  0  0  0  0  0  0  0  0  0
  1  5  1  0
  5  8  1  0
  1  2  1  0
  1  3  1  0
  1  4  1  0
  5  6  1  0
  5  7  1  0
  8  9  1  0
  8 10  1  0
  8 11  1  0
 12 16  1  0
 16 17  1  0
 12 13  1  0
 12 14  1  0
 12 15  1  0
 17 18  1  0
 17 19  1  0
 17 20  1  0
M  CHG  1   8   1
M  END
>  <PDB_ID>  (1591) 
pdb5fuv

>  <RESIDUE_NAME>  (1591) 
LYS   MET

>  <FRAG_NAME>  (1591) 
ETAM   MSM

>  <FRAG_ATOM_NUM>  (1591) 
fragi: 11  fragj: 9

>  <atom.prop.CHAIN_ID>  (1591) 
A A A A A A A A A A A Z Z Z Z Z Z Z Z Z

>  <atom.prop.IS_HEAVY_ATOM>  (1591) 
1 0 0 0 1 0 0 1 0 0 0 1 0 0 0 1 1 0 0 0

>  <DIFUSE_FUNC_ATOM>  (1591) 
n/a

>  <FINAL_SINGLE_POINT_ENERGY>  (1591) 
0

>  <NONCOV_INTER_ENERGY_QM>  (1591) 
0

>  <FF_Energy>  (1591) 
-4.34

>  <QM_Energy>  (1591) 
-10.21

>  <source>  (1591) 
ETAM_MSM

>  <Index>  (1591) 
10144

$$$$
ETAM-pdb5fuv-B-LYS-381:MSM-pdb5fuv-B-MET-371
     RDKit          3D

 20 18  0  0  0  0  0  0  0  0999 V2000
    1.3150    0.7199   -0.0000 C   0  0  0  0  0  0  0  0  0  0  0  0
    2.0480    0.0576    0.0951 H   0  0  0  0  0  0  0  0  0  0  0  0
    1.3298    1.3691    0.7512 H   0  0  0  0  0  0  0  0  0  0  0  0
    1.4495    1.2612   -0.9366 H   0  0  0  0  0  0  0  0  0  0  0  0
    0.0000    0.0000    0.0000 C   0  0  0  0  0  0  0  0  0  0  0  0
    0.0155   -0.6890   -0.8160 H   0  0  0  0  0  0  0  0  0  0  0  0
    0.0150   -0.6887    0.8163 H   0  0  0  0  0  0  0  0  0  0  0  0
   -1.3150    0.6507   -0.0000 N   0  0  0  0  0  4  0  0  0  0  0  0
   -1.3040    1.4444    0.6132 H   0  0  0  0  0  0  0  0  0  0  0  0
   -1.5444    0.9576   -0.9270 H   0  0  0  0  0  0  0  0  0  0  0  0
   -2.0162    0.0053    0.3129 H   0  0  0  0  0  0  0  0  0  0  0  0
    0.2984   -1.2474    4.5956 C   0  0  0  0  0  0  0  0  0  0  0  0
   -0.0683   -0.3556    4.8885 H   0  0  0  0  0  0  0  0  0  0  0  0
    1.2507   -1.1120    4.2948 H   0  0  0  0  0  0  0  0  0  0  0  0
    0.2618   -1.9578    5.4215 H   0  0  0  0  0  0  0  0  0  0  0  0
   -0.7023   -1.8991    3.2039 S   0  0  0  0  0  0  0  0  0  0  0  0
    0.3926   -3.0527    2.4733 C   0  0  0  0  0  0  0  0  0  0  0  0
    1.1237   -2.5786    1.9663 H   0  0  0  0  0  0  0  0  0  0  0  0
    0.8222   -3.6320    3.1784 H   0  0  0  0  0  0  0  0  0  0  0  0
   -0.0995   -3.6528    1.8292 H   0  0  0  0  0  0  0  0  0  0  0  0
  1  5  1  0
  5  8  1  0
  1  2  1  0
  1  3  1  0
  1  4  1  0
  5  6  1  0
  5  7  1  0
  8  9  1  0
  8 10  1  0
  8 11  1  0
 12 16  1  0
 16 17  1  0
 12 13  1  0
 12 14  1  0
 12 15  1  0
 17 18  1  0
 17 19  1  0
 17 20  1  0
M  CHG  1   8   1
M  END
>  <PDB_ID>  (1592) 
pdb5fuv

>  <RESIDUE_NAME>  (1592) 
LYS   MET

>  <FRAG_NAME>  (1592) 
ETAM   MSM

>  <FRAG_ATOM_NUM>  (1592) 
fragi: 11  fragj: 9

>  <atom.prop.CHAIN_ID>  (1592) 
A A A A A A A A A A A Z Z Z Z Z Z Z Z Z

>  <atom.prop.IS_HEAVY_ATOM>  (1592) 
1 0 0 0 1 0 0 1 0 0 0 1 0 0 0 1 1 0 0 0

>  <DIFUSE_FUNC_ATOM>  (1592) 
n/a

>  <FINAL_SINGLE_POINT_ENERGY>  (1592) 
0

>  <NONCOV_INTER_ENERGY_QM>  (1592) 
0

>  <FF_Energy>  (1592) 
-3.65

>  <QM_Energy>  (1592) 
-8.98

>  <source>  (1592) 
ETAM_MSM

>  <Index>  (1592) 
10152

$$$$
ETAM-pdb6g0z-B-LYS-14:MSM-pdb6g0z-B-MET-43
     RDKit          3D

 20 18  0  0  0  0  0  0  0  0999 V2000
    1.2561    0.8638    0.0000 C   0  0  0  0  0  0  0  0  0  0  0  0
    1.2805    1.3872    0.8406 H   0  0  0  0  0  0  0  0  0  0  0  0
    1.2306    1.4596   -0.7904 H   0  0  0  0  0  0  0  0  0  0  0  0
    2.1510    0.2438   -0.0545 H   0  0  0  0  0  0  0  0  0  0  0  0
    0.0000    0.0000    0.0000 C   0  0  0  0  0  0  0  0  0  0  0  0
    0.0161   -0.5927   -0.8161 H   0  0  0  0  0  0  0  0  0  0  0  0
    0.0154   -0.5927    0.8167 H   0  0  0  0  0  0  0  0  0  0  0  0
   -1.2561    0.7965    0.0000 N   0  0  0  0  0  4  0  0  0  0  0  0
   -1.0402    1.7576    0.1695 H   0  0  0  0  0  0  0  0  0  0  0  0
   -1.7061    0.7066   -0.8883 H   0  0  0  0  0  0  0  0  0  0  0  0
   -1.8638    0.4588    0.7183 H   0  0  0  0  0  0  0  0  0  0  0  0
   -2.0725   -0.6312    4.7507 C   0  0  0  0  0  0  0  0  0  0  0  0
   -2.9502   -0.9703    5.1587 H   0  0  0  0  0  0  0  0  0  0  0  0
   -1.5685   -0.1775    5.5197 H   0  0  0  0  0  0  0  0  0  0  0  0
   -1.4928   -1.4959    4.4277 H   0  0  0  0  0  0  0  0  0  0  0  0
   -2.3787    0.5109    3.4152 S   0  0  0  0  0  0  0  0  0  0  0  0
   -0.8805    1.4806    3.4519 C   0  0  0  0  0  0  0  0  0  0  0  0
   -0.2692    1.1890    2.7133 H   0  0  0  0  0  0  0  0  0  0  0  0
   -1.1016    2.4508    3.3321 H   0  0  0  0  0  0  0  0  0  0  0  0
   -0.4172    1.3552    4.3312 H   0  0  0  0  0  0  0  0  0  0  0  0
  1  5  1  0
  5  8  1  0
  1  2  1  0
  1  3  1  0
  1  4  1  0
  5  6  1  0
  5  7  1  0
  8  9  1  0
  8 10  1  0
  8 11  1  0
 12 16  1  0
 16 17  1  0
 12 13  1  0
 12 14  1  0
 12 15  1  0
 17 18  1  0
 17 19  1  0
 17 20  1  0
M  CHG  1   8   1
M  END
>  <PDB_ID>  (1593) 
pdb6g0z

>  <RESIDUE_NAME>  (1593) 
LYS   MET

>  <FRAG_NAME>  (1593) 
ETAM   MSM

>  <FRAG_ATOM_NUM>  (1593) 
fragi: 11  fragj: 9

>  <atom.prop.CHAIN_ID>  (1593) 
A A A A A A A A A A A Z Z Z Z Z Z Z Z Z

>  <atom.prop.IS_HEAVY_ATOM>  (1593) 
1 0 0 0 1 0 0 1 0 0 0 1 0 0 0 1 1 0 0 0

>  <DIFUSE_FUNC_ATOM>  (1593) 
n/a

>  <FINAL_SINGLE_POINT_ENERGY>  (1593) 
0

>  <NONCOV_INTER_ENERGY_QM>  (1593) 
0

>  <FF_Energy>  (1593) 
-4.2

>  <QM_Energy>  (1593) 
-11.02

>  <source>  (1593) 
ETAM_MSM

>  <Index>  (1593) 
10153

$$$$
ETAM-pdb6g4j-A-LYS-36:MSM-pdb6g4j-A-MET-1
     RDKit          3D

 20 18  0  0  0  0  0  0  0  0999 V2000
    1.2457    0.8536   -0.0000 C   0  0  0  0  0  0  0  0  0  0  0  0
    1.2771    1.3786    0.8472 H   0  0  0  0  0  0  0  0  0  0  0  0
    1.2130    1.4719   -0.7818 H   0  0  0  0  0  0  0  0  0  0  0  0
    2.1516    0.2515   -0.0697 H   0  0  0  0  0  0  0  0  0  0  0  0
    0.0000    0.0000    0.0000 C   0  0  0  0  0  0  0  0  0  0  0  0
    0.0037   -0.5891   -0.8162 H   0  0  0  0  0  0  0  0  0  0  0  0
    0.0031   -0.5895    0.8167 H   0  0  0  0  0  0  0  0  0  0  0  0
   -1.2457    0.8166    0.0000 N   0  0  0  0  0  4  0  0  0  0  0  0
   -1.3963    1.1899   -0.9145 H   0  0  0  0  0  0  0  0  0  0  0  0
   -2.0197    0.2395    0.2581 H   0  0  0  0  0  0  0  0  0  0  0  0
   -1.1509    1.5639    0.6565 H   0  0  0  0  0  0  0  0  0  0  0  0
   -0.8420    0.2565   -4.4509 C   0  0  0  0  0  0  0  0  0  0  0  0
   -0.3989    0.4825   -5.3619 H   0  0  0  0  0  0  0  0  0  0  0  0
   -1.4875   -0.5242   -4.6775 H   0  0  0  0  0  0  0  0  0  0  0  0
   -0.0661   -0.1320   -3.7911 H   0  0  0  0  0  0  0  0  0  0  0  0
   -1.7555    1.6746   -3.8157 S   0  0  0  0  0  0  0  0  0  0  0  0
   -2.6547    2.1085   -5.3011 C   0  0  0  0  0  0  0  0  0  0  0  0
   -3.6323    2.1791   -5.0946 H   0  0  0  0  0  0  0  0  0  0  0  0
   -2.3254    2.9885   -5.6487 H   0  0  0  0  0  0  0  0  0  0  0  0
   -2.5139    1.4036   -5.9984 H   0  0  0  0  0  0  0  0  0  0  0  0
  1  5  1  0
  5  8  1  0
  1  2  1  0
  1  3  1  0
  1  4  1  0
  5  6  1  0
  5  7  1  0
  8  9  1  0
  8 10  1  0
  8 11  1  0
 12 16  1  0
 16 17  1  0
 12 13  1  0
 12 14  1  0
 12 15  1  0
 17 18  1  0
 17 19  1  0
 17 20  1  0
M  CHG  1   8   1
M  END
>  <PDB_ID>  (1594) 
pdb6g4j

>  <RESIDUE_NAME>  (1594) 
LYS   MET

>  <FRAG_NAME>  (1594) 
ETAM   MSM

>  <FRAG_ATOM_NUM>  (1594) 
fragi: 11  fragj: 9

>  <atom.prop.CHAIN_ID>  (1594) 
A A A A A A A A A A A Z Z Z Z Z Z Z Z Z

>  <atom.prop.IS_HEAVY_ATOM>  (1594) 
1 0 0 0 1 0 0 1 0 0 0 1 0 0 0 1 1 0 0 0

>  <DIFUSE_FUNC_ATOM>  (1594) 
n/a

>  <FINAL_SINGLE_POINT_ENERGY>  (1594) 
0

>  <NONCOV_INTER_ENERGY_QM>  (1594) 
0

>  <FF_Energy>  (1594) 
-4.69

>  <QM_Energy>  (1594) 
-10.07

>  <source>  (1594) 
ETAM_MSM

>  <Index>  (1594) 
10156

$$$$
ETAM-pdb6g0z-B-LYS-188:MSM-pdb6g0z-B-MET-284
     RDKit          3D

 20 18  0  0  0  0  0  0  0  0999 V2000
    1.2289    0.8696    0.0000 C   0  0  0  0  0  0  0  0  0  0  0  0
    1.2528    1.3977    0.8410 H   0  0  0  0  0  0  0  0  0  0  0  0
    1.1993    1.4729   -0.7896 H   0  0  0  0  0  0  0  0  0  0  0  0
    2.1341    0.2651   -0.0569 H   0  0  0  0  0  0  0  0  0  0  0  0
    0.0000    0.0000    0.0000 C   0  0  0  0  0  0  0  0  0  0  0  0
    0.0098   -0.5841   -0.8161 H   0  0  0  0  0  0  0  0  0  0  0  0
    0.0103   -0.5837    0.8161 H   0  0  0  0  0  0  0  0  0  0  0  0
   -1.2289    0.8176    0.0000 N   0  0  0  0  0  4  0  0  0  0  0  0
   -2.0249    0.2314   -0.1599 H   0  0  0  0  0  0  0  0  0  0  0  0
   -1.3287    1.2762    0.8848 H   0  0  0  0  0  0  0  0  0  0  0  0
   -1.1757    1.5066   -0.7250 H   0  0  0  0  0  0  0  0  0  0  0  0
   -5.3795    1.7194    0.0467 C   0  0  0  0  0  0  0  0  0  0  0  0
   -4.9451    1.6021    0.9711 H   0  0  0  0  0  0  0  0  0  0  0  0
   -5.7087    0.7804   -0.2141 H   0  0  0  0  0  0  0  0  0  0  0  0
   -6.2469    2.3707    0.1549 H   0  0  0  0  0  0  0  0  0  0  0  0
   -4.2087    2.3406   -1.1379 S   0  0  0  0  0  0  0  0  0  0  0  0
   -3.7471    3.8695   -0.3197 C   0  0  0  0  0  0  0  0  0  0  0  0
   -3.5037    3.6786    0.6312 H   0  0  0  0  0  0  0  0  0  0  0  0
   -2.9627    4.2760   -0.7890 H   0  0  0  0  0  0  0  0  0  0  0  0
   -4.5175    4.5075   -0.3444 H   0  0  0  0  0  0  0  0  0  0  0  0
  1  5  1  0
  5  8  1  0
  1  2  1  0
  1  3  1  0
  1  4  1  0
  5  6  1  0
  5  7  1  0
  8  9  1  0
  8 10  1  0
  8 11  1  0
 12 16  1  0
 16 17  1  0
 12 13  1  0
 12 14  1  0
 12 15  1  0
 17 18  1  0
 17 19  1  0
 17 20  1  0
M  CHG  1   8   1
M  END
>  <PDB_ID>  (1595) 
pdb6g0z

>  <RESIDUE_NAME>  (1595) 
LYS   MET

>  <FRAG_NAME>  (1595) 
ETAM   MSM

>  <FRAG_ATOM_NUM>  (1595) 
fragi: 11  fragj: 9

>  <atom.prop.CHAIN_ID>  (1595) 
A A A A A A A A A A A Z Z Z Z Z Z Z Z Z

>  <atom.prop.IS_HEAVY_ATOM>  (1595) 
1 0 0 0 1 0 0 1 0 0 0 1 0 0 0 1 1 0 0 0

>  <DIFUSE_FUNC_ATOM>  (1595) 
n/a

>  <FINAL_SINGLE_POINT_ENERGY>  (1595) 
0

>  <NONCOV_INTER_ENERGY_QM>  (1595) 
0

>  <FF_Energy>  (1595) 
-3.92

>  <QM_Energy>  (1595) 
-10.23

>  <source>  (1595) 
ETAM_MSM

>  <Index>  (1595) 
10160

$$$$
ETAM-pdb5g1x-A-LYS-309:MSM-pdb5g1x-A-MET-373
     RDKit          3D

 20 18  0  0  0  0  0  0  0  0999 V2000
    1.2438    0.8788    0.0000 C   0  0  0  0  0  0  0  0  0  0  0  0
    1.2637    1.3968    0.8499 H   0  0  0  0  0  0  0  0  0  0  0  0
    1.1931    1.4961   -0.7789 H   0  0  0  0  0  0  0  0  0  0  0  0
    2.1548    0.2850   -0.0752 H   0  0  0  0  0  0  0  0  0  0  0  0
    0.0000    0.0000    0.0000 C   0  0  0  0  0  0  0  0  0  0  0  0
    0.0129   -0.5806   -0.8165 H   0  0  0  0  0  0  0  0  0  0  0  0
    0.0126   -0.5807    0.8162 H   0  0  0  0  0  0  0  0  0  0  0  0
   -1.2438    0.8183   -0.0000 N   0  0  0  0  0  4  0  0  0  0  0  0
   -1.2250    1.4502    0.7747 H   0  0  0  0  0  0  0  0  0  0  0  0
   -1.3002    1.3359   -0.8535 H   0  0  0  0  0  0  0  0  0  0  0  0
   -2.0372    0.2154    0.0794 H   0  0  0  0  0  0  0  0  0  0  0  0
   -5.5378    1.1879   -1.6537 C   0  0  0  0  0  0  0  0  0  0  0  0
   -5.6180    0.8409   -0.6926 H   0  0  0  0  0  0  0  0  0  0  0  0
   -6.3737    0.8472   -2.1397 H   0  0  0  0  0  0  0  0  0  0  0  0
   -5.5676    2.2774   -1.6329 H   0  0  0  0  0  0  0  0  0  0  0  0
   -4.0429    0.5560   -2.4373 S   0  0  0  0  0  0  0  0  0  0  0  0
   -4.2607    1.1514   -4.1126 C   0  0  0  0  0  0  0  0  0  0  0  0
   -3.9770    2.1097   -4.1675 H   0  0  0  0  0  0  0  0  0  0  0  0
   -3.7034    0.6038   -4.7382 H   0  0  0  0  0  0  0  0  0  0  0  0
   -5.2246    1.0751   -4.3731 H   0  0  0  0  0  0  0  0  0  0  0  0
  1  5  1  0
  5  8  1  0
  1  2  1  0
  1  3  1  0
  1  4  1  0
  5  6  1  0
  5  7  1  0
  8  9  1  0
  8 10  1  0
  8 11  1  0
 12 16  1  0
 16 17  1  0
 12 13  1  0
 12 14  1  0
 12 15  1  0
 17 18  1  0
 17 19  1  0
 17 20  1  0
M  CHG  1   8   1
M  END
>  <PDB_ID>  (1596) 
pdb5g1x

>  <RESIDUE_NAME>  (1596) 
LYS   MET

>  <FRAG_NAME>  (1596) 
ETAM   MSM

>  <FRAG_ATOM_NUM>  (1596) 
fragi: 11  fragj: 9

>  <atom.prop.CHAIN_ID>  (1596) 
A A A A A A A A A A A Z Z Z Z Z Z Z Z Z

>  <atom.prop.IS_HEAVY_ATOM>  (1596) 
1 0 0 0 1 0 0 1 0 0 0 1 0 0 0 1 1 0 0 0

>  <DIFUSE_FUNC_ATOM>  (1596) 
n/a

>  <FINAL_SINGLE_POINT_ENERGY>  (1596) 
0

>  <NONCOV_INTER_ENERGY_QM>  (1596) 
0

>  <FF_Energy>  (1596) 
-4.7

>  <QM_Energy>  (1596) 
-11.39

>  <source>  (1596) 
ETAM_MSM

>  <Index>  (1596) 
10167

$$$$
ETAM-pdb5fqe-B-LYS-352:MSM-pdb5fqe-B-MET-348
     RDKit          3D

 20 18  0  0  0  0  0  0  0  0999 V2000
    1.2579    0.8621   -0.0000 C   0  0  0  0  0  0  0  0  0  0  0  0
    1.3211    1.3269   -0.8774 H   0  0  0  0  0  0  0  0  0  0  0  0
    2.0464    0.2686    0.1331 H   0  0  0  0  0  0  0  0  0  0  0  0
    1.2361    1.6076    0.7948 H   0  0  0  0  0  0  0  0  0  0  0  0
    0.0000    0.0000    0.0000 C   0  0  0  0  0  0  0  0  0  0  0  0
    0.0187   -0.5961   -0.8163 H   0  0  0  0  0  0  0  0  0  0  0  0
    0.0184   -0.5966    0.8168 H   0  0  0  0  0  0  0  0  0  0  0  0
   -1.2579    0.7865    0.0000 N   0  0  0  0  0  4  0  0  0  0  0  0
   -1.9683    0.2805    0.4902 H   0  0  0  0  0  0  0  0  0  0  0  0
   -1.1024    1.6655    0.4523 H   0  0  0  0  0  0  0  0  0  0  0  0
   -1.5521    0.9447   -0.9428 H   0  0  0  0  0  0  0  0  0  0  0  0
   -0.7037    3.5419   -2.5758 C   0  0  0  0  0  0  0  0  0  0  0  0
   -1.4482    3.0278   -3.0898 H   0  0  0  0  0  0  0  0  0  0  0  0
   -0.0702    2.7841   -2.2490 H   0  0  0  0  0  0  0  0  0  0  0  0
   -0.1645    4.1798   -3.2761 H   0  0  0  0  0  0  0  0  0  0  0  0
   -1.4291    4.3959   -1.1388 S   0  0  0  0  0  0  0  0  0  0  0  0
   -2.7697    5.2712   -1.9004 C   0  0  0  0  0  0  0  0  0  0  0  0
   -3.1657    4.7198   -2.6404 H   0  0  0  0  0  0  0  0  0  0  0  0
   -3.4844    5.4644   -1.2227 H   0  0  0  0  0  0  0  0  0  0  0  0
   -2.4413    6.1401   -2.2829 H   0  0  0  0  0  0  0  0  0  0  0  0
  1  5  1  0
  5  8  1  0
  1  2  1  0
  1  3  1  0
  1  4  1  0
  5  6  1  0
  5  7  1  0
  8  9  1  0
  8 10  1  0
  8 11  1  0
 12 16  1  0
 16 17  1  0
 12 13  1  0
 12 14  1  0
 12 15  1  0
 17 18  1  0
 17 19  1  0
 17 20  1  0
M  CHG  1   8   1
M  END
>  <PDB_ID>  (1597) 
pdb5fqe

>  <RESIDUE_NAME>  (1597) 
LYS   MET

>  <FRAG_NAME>  (1597) 
ETAM   MSM

>  <FRAG_ATOM_NUM>  (1597) 
fragi: 11  fragj: 9

>  <atom.prop.CHAIN_ID>  (1597) 
A A A A A A A A A A A Z Z Z Z Z Z Z Z Z

>  <atom.prop.IS_HEAVY_ATOM>  (1597) 
1 0 0 0 1 0 0 1 0 0 0 1 0 0 0 1 1 0 0 0

>  <DIFUSE_FUNC_ATOM>  (1597) 
n/a

>  <FINAL_SINGLE_POINT_ENERGY>  (1597) 
0

>  <NONCOV_INTER_ENERGY_QM>  (1597) 
0

>  <FF_Energy>  (1597) 
-3.73

>  <QM_Energy>  (1597) 
-9.01

>  <source>  (1597) 
ETAM_MSM

>  <Index>  (1597) 
10171

$$$$
ETAM-pdb6g9f-A-LYS-94:MSM-pdb6g9f-A-MET-91
     RDKit          3D

 20 18  0  0  0  0  0  0  0  0999 V2000
    1.2399    0.8790   -0.0000 C   0  0  0  0  0  0  0  0  0  0  0  0
    1.0691    1.6732    0.5763 H   0  0  0  0  0  0  0  0  0  0  0  0
    1.4274    1.1671   -0.9351 H   0  0  0  0  0  0  0  0  0  0  0  0
    2.1136    0.3524    0.3841 H   0  0  0  0  0  0  0  0  0  0  0  0
    0.0000    0.0000    0.0000 C   0  0  0  0  0  0  0  0  0  0  0  0
    0.0098   -0.5769   -0.8161 H   0  0  0  0  0  0  0  0  0  0  0  0
    0.0090   -0.5772    0.8160 H   0  0  0  0  0  0  0  0  0  0  0  0
   -1.2399    0.8279    0.0000 N   0  0  0  0  0  4  0  0  0  0  0  0
   -1.5241    0.9977   -0.9428 H   0  0  0  0  0  0  0  0  0  0  0  0
   -1.9633    0.3394    0.4851 H   0  0  0  0  0  0  0  0  0  0  0  0
   -1.0567    1.6968    0.4574 H   0  0  0  0  0  0  0  0  0  0  0  0
   -0.0891    3.0740    3.8326 C   0  0  0  0  0  0  0  0  0  0  0  0
   -0.1183    3.3017    4.8229 H   0  0  0  0  0  0  0  0  0  0  0  0
   -0.5204    3.8506    3.3380 H   0  0  0  0  0  0  0  0  0  0  0  0
    0.9493    2.9757    3.5160 H   0  0  0  0  0  0  0  0  0  0  0  0
   -0.9718    1.5483    3.5074 S   0  0  0  0  0  0  0  0  0  0  0  0
    0.4209    0.4663    3.4070 C   0  0  0  0  0  0  0  0  0  0  0  0
    1.1901    0.8397    3.9359 H   0  0  0  0  0  0  0  0  0  0  0  0
    0.1859   -0.4385    3.7763 H   0  0  0  0  0  0  0  0  0  0  0  0
    0.7099    0.3591    2.4497 H   0  0  0  0  0  0  0  0  0  0  0  0
  1  5  1  0
  5  8  1  0
  1  2  1  0
  1  3  1  0
  1  4  1  0
  5  6  1  0
  5  7  1  0
  8  9  1  0
  8 10  1  0
  8 11  1  0
 12 16  1  0
 16 17  1  0
 12 13  1  0
 12 14  1  0
 12 15  1  0
 17 18  1  0
 17 19  1  0
 17 20  1  0
M  CHG  1   8   1
M  END
>  <PDB_ID>  (1598) 
pdb6g9f

>  <RESIDUE_NAME>  (1598) 
LYS   MET

>  <FRAG_NAME>  (1598) 
ETAM   MSM

>  <FRAG_ATOM_NUM>  (1598) 
fragi: 11  fragj: 9

>  <atom.prop.CHAIN_ID>  (1598) 
A A A A A A A A A A A Z Z Z Z Z Z Z Z Z

>  <atom.prop.IS_HEAVY_ATOM>  (1598) 
1 0 0 0 1 0 0 1 0 0 0 1 0 0 0 1 1 0 0 0

>  <DIFUSE_FUNC_ATOM>  (1598) 
n/a

>  <FINAL_SINGLE_POINT_ENERGY>  (1598) 
0

>  <NONCOV_INTER_ENERGY_QM>  (1598) 
0

>  <FF_Energy>  (1598) 
-2.14

>  <QM_Energy>  (1598) 
-9.96

>  <source>  (1598) 
ETAM_MSM

>  <Index>  (1598) 
10172

$$$$
ETAM-pdb6gbs-A-LYS-4:MSM-pdb6gbs-A-MET-1
     RDKit          3D

 20 18  0  0  0  0  0  0  0  0999 V2000
    1.2668    0.8655    0.0000 C   0  0  0  0  0  0  0  0  0  0  0  0
    2.0194    0.3179    0.3534 H   0  0  0  0  0  0  0  0  0  0  0  0
    1.1077    1.6521    0.5886 H   0  0  0  0  0  0  0  0  0  0  0  0
    1.5252    1.2170   -0.9989 H   0  0  0  0  0  0  0  0  0  0  0  0
    0.0000    0.0000    0.0000 C   0  0  0  0  0  0  0  0  0  0  0  0
    0.0159   -0.5921   -0.8158 H   0  0  0  0  0  0  0  0  0  0  0  0
    0.0153   -0.5922    0.8164 H   0  0  0  0  0  0  0  0  0  0  0  0
   -1.2668    0.7976    0.0000 N   0  0  0  0  0  4  0  0  0  0  0  0
   -1.3000    1.3601    0.8239 H   0  0  0  0  0  0  0  0  0  0  0  0
   -1.2861    1.3819   -0.8089 H   0  0  0  0  0  0  0  0  0  0  0  0
   -2.0454    0.1739   -0.0146 H   0  0  0  0  0  0  0  0  0  0  0  0
    3.9619   -3.1160    0.1273 C   0  0  0  0  0  0  0  0  0  0  0  0
    4.5622   -3.9435    0.0460 H   0  0  0  0  0  0  0  0  0  0  0  0
    4.6008   -2.3218    0.2366 H   0  0  0  0  0  0  0  0  0  0  0  0
    3.4126   -2.9940   -0.8062 H   0  0  0  0  0  0  0  0  0  0  0  0
    2.8728   -3.2580    1.5616 S   0  0  0  0  0  0  0  0  0  0  0  0
    2.2975   -1.5712    1.7430 C   0  0  0  0  0  0  0  0  0  0  0  0
    1.3364   -1.5127    1.4691 H   0  0  0  0  0  0  0  0  0  0  0  0
    2.3880   -1.2863    2.6986 H   0  0  0  0  0  0  0  0  0  0  0  0
    2.8446   -0.9656    1.1629 H   0  0  0  0  0  0  0  0  0  0  0  0
  1  5  1  0
  5  8  1  0
  1  2  1  0
  1  3  1  0
  1  4  1  0
  5  6  1  0
  5  7  1  0
  8  9  1  0
  8 10  1  0
  8 11  1  0
 12 16  1  0
 16 17  1  0
 12 13  1  0
 12 14  1  0
 12 15  1  0
 17 18  1  0
 17 19  1  0
 17 20  1  0
M  CHG  1   8   1
M  END
>  <PDB_ID>  (1599) 
pdb6gbs

>  <RESIDUE_NAME>  (1599) 
LYS   MET

>  <FRAG_NAME>  (1599) 
ETAM   MSM

>  <FRAG_ATOM_NUM>  (1599) 
fragi: 11  fragj: 9

>  <atom.prop.CHAIN_ID>  (1599) 
A A A A A A A A A A A Z Z Z Z Z Z Z Z Z

>  <atom.prop.IS_HEAVY_ATOM>  (1599) 
1 0 0 0 1 0 0 1 0 0 0 1 0 0 0 1 1 0 0 0

>  <DIFUSE_FUNC_ATOM>  (1599) 
n/a

>  <FINAL_SINGLE_POINT_ENERGY>  (1599) 
0

>  <NONCOV_INTER_ENERGY_QM>  (1599) 
0

>  <FF_Energy>  (1599) 
14.17

>  <QM_Energy>  (1599) 
4.82

>  <source>  (1599) 
ETAM_MSM

>  <Index>  (1599) 
10180

$$$$
ETAM-pdb5ghu-A-LYS-119:MSM-pdb5ghu-A-MET-181
     RDKit          3D

 20 18  0  0  0  0  0  0  0  0999 V2000
    1.2522    0.8858   -0.0000 C   0  0  0  0  0  0  0  0  0  0  0  0
    1.1528    1.5851    0.7077 H   0  0  0  0  0  0  0  0  0  0  0  0
    1.3358    1.3261   -0.8946 H   0  0  0  0  0  0  0  0  0  0  0  0
    2.1805    0.3484    0.1934 H   0  0  0  0  0  0  0  0  0  0  0  0
    0.0000    0.0000    0.0000 C   0  0  0  0  0  0  0  0  0  0  0  0
    0.0025   -0.5670   -0.8168 H   0  0  0  0  0  0  0  0  0  0  0  0
    0.0028   -0.5672    0.8167 H   0  0  0  0  0  0  0  0  0  0  0  0
   -1.2522    0.8514   -0.0000 N   0  0  0  0  0  4  0  0  0  0  0  0
   -2.0335    0.2683   -0.1987 H   0  0  0  0  0  0  0  0  0  0  0  0
   -1.3532    1.2687    0.8978 H   0  0  0  0  0  0  0  0  0  0  0  0
   -1.1595    1.5540   -0.6983 H   0  0  0  0  0  0  0  0  0  0  0  0
   -2.2391    1.8295   -4.0954 C   0  0  0  0  0  0  0  0  0  0  0  0
   -2.1849    1.7965   -5.1083 H   0  0  0  0  0  0  0  0  0  0  0  0
   -2.5984    2.7463   -3.8464 H   0  0  0  0  0  0  0  0  0  0  0  0
   -2.9191    1.0563   -3.7378 H   0  0  0  0  0  0  0  0  0  0  0  0
   -0.5396    1.6203   -3.3807 S   0  0  0  0  0  0  0  0  0  0  0  0
   -0.0598    0.0715   -4.0790 C   0  0  0  0  0  0  0  0  0  0  0  0
    0.3090    0.2056   -5.0047 H   0  0  0  0  0  0  0  0  0  0  0  0
    0.6468   -0.3630   -3.5116 H   0  0  0  0  0  0  0  0  0  0  0  0
   -0.8512   -0.5462   -4.1347 H   0  0  0  0  0  0  0  0  0  0  0  0
  1  5  1  0
  5  8  1  0
  1  2  1  0
  1  3  1  0
  1  4  1  0
  5  6  1  0
  5  7  1  0
  8  9  1  0
  8 10  1  0
  8 11  1  0
 12 16  1  0
 16 17  1  0
 12 13  1  0
 12 14  1  0
 12 15  1  0
 17 18  1  0
 17 19  1  0
 17 20  1  0
M  CHG  1   8   1
M  END
>  <PDB_ID>  (1600) 
pdb5ghu

>  <RESIDUE_NAME>  (1600) 
LYS   MET

>  <FRAG_NAME>  (1600) 
ETAM   MSM

>  <FRAG_ATOM_NUM>  (1600) 
fragi: 11  fragj: 9

>  <atom.prop.CHAIN_ID>  (1600) 
A A A A A A A A A A A Z Z Z Z Z Z Z Z Z

>  <atom.prop.IS_HEAVY_ATOM>  (1600) 
1 0 0 0 1 0 0 1 0 0 0 1 0 0 0 1 1 0 0 0

>  <DIFUSE_FUNC_ATOM>  (1600) 
n/a

>  <FINAL_SINGLE_POINT_ENERGY>  (1600) 
0

>  <NONCOV_INTER_ENERGY_QM>  (1600) 
0

>  <FF_Energy>  (1600) 
-5.34

>  <QM_Energy>  (1600) 
-14.12

>  <source>  (1600) 
ETAM_MSM

>  <Index>  (1600) 
10185

$$$$
ETAM-pdb6gfv-A-LYS-66:MSM-pdb6gfv-A-MET-368
     RDKit          3D

 20 18  0  0  0  0  0  0  0  0999 V2000
    1.2346    0.8628   -0.0000 C   0  0  0  0  0  0  0  0  0  0  0  0
    1.3638    1.2397    0.9139 H   0  0  0  0  0  0  0  0  0  0  0  0
    1.1112    1.6001   -0.6591 H   0  0  0  0  0  0  0  0  0  0  0  0
    2.1200    0.2884   -0.2725 H   0  0  0  0  0  0  0  0  0  0  0  0
    0.0000    0.0000    0.0000 C   0  0  0  0  0  0  0  0  0  0  0  0
   -0.0012   -0.5789   -0.8163 H   0  0  0  0  0  0  0  0  0  0  0  0
   -0.0015   -0.5795    0.8165 H   0  0  0  0  0  0  0  0  0  0  0  0
   -1.2346    0.8374    0.0000 N   0  0  0  0  0  4  0  0  0  0  0  0
   -1.6417    0.8255   -0.9124 H   0  0  0  0  0  0  0  0  0  0  0  0
   -1.8842    0.4674    0.6623 H   0  0  0  0  0  0  0  0  0  0  0  0
   -0.9970    1.7747    0.2499 H   0  0  0  0  0  0  0  0  0  0  0  0
   -3.4409    0.0882    3.2041 C   0  0  0  0  0  0  0  0  0  0  0  0
   -4.1088    0.1929    2.4312 H   0  0  0  0  0  0  0  0  0  0  0  0
   -3.0764    1.0325    3.3767 H   0  0  0  0  0  0  0  0  0  0  0  0
   -3.9907   -0.2339    4.0886 H   0  0  0  0  0  0  0  0  0  0  0  0
   -2.1070   -1.0389    2.7495 S   0  0  0  0  0  0  0  0  0  0  0  0
   -3.0338   -2.3610    1.9862 C   0  0  0  0  0  0  0  0  0  0  0  0
   -3.8192   -2.5993    2.5611 H   0  0  0  0  0  0  0  0  0  0  0  0
   -3.3607   -2.0691    1.0859 H   0  0  0  0  0  0  0  0  0  0  0  0
   -2.4483   -3.1667    1.8790 H   0  0  0  0  0  0  0  0  0  0  0  0
  1  5  1  0
  5  8  1  0
  1  2  1  0
  1  3  1  0
  1  4  1  0
  5  6  1  0
  5  7  1  0
  8  9  1  0
  8 10  1  0
  8 11  1  0
 12 16  1  0
 16 17  1  0
 12 13  1  0
 12 14  1  0
 12 15  1  0
 17 18  1  0
 17 19  1  0
 17 20  1  0
M  CHG  1   8   1
M  END
>  <PDB_ID>  (1601) 
pdb6gfv

>  <RESIDUE_NAME>  (1601) 
LYS   MET

>  <FRAG_NAME>  (1601) 
ETAM   MSM

>  <FRAG_ATOM_NUM>  (1601) 
fragi: 11  fragj: 9

>  <atom.prop.CHAIN_ID>  (1601) 
A A A A A A A A A A A Z Z Z Z Z Z Z Z Z

>  <atom.prop.IS_HEAVY_ATOM>  (1601) 
1 0 0 0 1 0 0 1 0 0 0 1 0 0 0 1 1 0 0 0

>  <DIFUSE_FUNC_ATOM>  (1601) 
n/a

>  <FINAL_SINGLE_POINT_ENERGY>  (1601) 
0

>  <NONCOV_INTER_ENERGY_QM>  (1601) 
0

>  <FF_Energy>  (1601) 
-4.67

>  <QM_Energy>  (1601) 
-13.92

>  <source>  (1601) 
ETAM_MSM

>  <Index>  (1601) 
10189

$$$$
ETAM-pdb5gkv-A-LYS-352:MSM-pdb5gkv-A-MET-210
     RDKit          3D

 20 18  0  0  0  0  0  0  0  0999 V2000
    1.2498    0.8910   -0.0000 C   0  0  0  0  0  0  0  0  0  0  0  0
    1.1981    1.5006   -0.7839 H   0  0  0  0  0  0  0  0  0  0  0  0
    2.0496    0.3051   -0.0689 H   0  0  0  0  0  0  0  0  0  0  0  0
    1.3233    1.4878    0.9091 H   0  0  0  0  0  0  0  0  0  0  0  0
    0.0000    0.0000    0.0000 C   0  0  0  0  0  0  0  0  0  0  0  0
    0.0155   -0.5739   -0.8158 H   0  0  0  0  0  0  0  0  0  0  0  0
    0.0154   -0.5746    0.8161 H   0  0  0  0  0  0  0  0  0  0  0  0
   -1.2498    0.8245   -0.0000 N   0  0  0  0  0  4  0  0  0  0  0  0
   -1.6558    0.8040   -0.9117 H   0  0  0  0  0  0  0  0  0  0  0  0
   -1.8910    0.4461    0.6642 H   0  0  0  0  0  0  0  0  0  0  0  0
   -1.0220    1.7643    0.2474 H   0  0  0  0  0  0  0  0  0  0  0  0
   -1.7392    5.4325    0.9180 C   0  0  0  0  0  0  0  0  0  0  0  0
   -2.2003    4.9313    1.6749 H   0  0  0  0  0  0  0  0  0  0  0  0
   -2.3522    6.2032    0.6629 H   0  0  0  0  0  0  0  0  0  0  0  0
   -0.7974    5.8380    1.2877 H   0  0  0  0  0  0  0  0  0  0  0  0
   -1.4557    4.3495   -0.4873 S   0  0  0  0  0  0  0  0  0  0  0  0
    0.2808    4.6570   -0.7857 C   0  0  0  0  0  0  0  0  0  0  0  0
    0.4647    4.6265   -1.7693 H   0  0  0  0  0  0  0  0  0  0  0  0
    0.5291    5.5603   -0.4306 H   0  0  0  0  0  0  0  0  0  0  0  0
    0.8307    3.9580   -0.3254 H   0  0  0  0  0  0  0  0  0  0  0  0
  1  5  1  0
  5  8  1  0
  1  2  1  0
  1  3  1  0
  1  4  1  0
  5  6  1  0
  5  7  1  0
  8  9  1  0
  8 10  1  0
  8 11  1  0
 12 16  1  0
 16 17  1  0
 12 13  1  0
 12 14  1  0
 12 15  1  0
 17 18  1  0
 17 19  1  0
 17 20  1  0
M  CHG  1   8   1
M  END
>  <PDB_ID>  (1602) 
pdb5gkv

>  <RESIDUE_NAME>  (1602) 
LYS   MET

>  <FRAG_NAME>  (1602) 
ETAM   MSM

>  <FRAG_ATOM_NUM>  (1602) 
fragi: 11  fragj: 9

>  <atom.prop.CHAIN_ID>  (1602) 
A A A A A A A A A A A Z Z Z Z Z Z Z Z Z

>  <atom.prop.IS_HEAVY_ATOM>  (1602) 
1 0 0 0 1 0 0 1 0 0 0 1 0 0 0 1 1 0 0 0

>  <DIFUSE_FUNC_ATOM>  (1602) 
n/a

>  <FINAL_SINGLE_POINT_ENERGY>  (1602) 
0

>  <NONCOV_INTER_ENERGY_QM>  (1602) 
0

>  <FF_Energy>  (1602) 
-5.11

>  <QM_Energy>  (1602) 
-13.41

>  <source>  (1602) 
ETAM_MSM

>  <Index>  (1602) 
10196

$$$$
ETAM-pdb6gfv-B-LYS-66:MSM-pdb6gfv-B-MET-368
     RDKit          3D

 20 18  0  0  0  0  0  0  0  0999 V2000
    1.2426    0.8604    0.0000 C   0  0  0  0  0  0  0  0  0  0  0  0
    1.3507    1.2689    0.9080 H   0  0  0  0  0  0  0  0  0  0  0  0
    1.1294    1.5886   -0.6781 H   0  0  0  0  0  0  0  0  0  0  0  0
    2.1466    0.3002   -0.2387 H   0  0  0  0  0  0  0  0  0  0  0  0
    0.0000    0.0000    0.0000 C   0  0  0  0  0  0  0  0  0  0  0  0
   -0.0100   -0.5726   -0.8160 H   0  0  0  0  0  0  0  0  0  0  0  0
   -0.0098   -0.5735    0.8166 H   0  0  0  0  0  0  0  0  0  0  0  0
   -1.2426    0.8582    0.0000 N   0  0  0  0  0  4  0  0  0  0  0  0
   -1.1940    1.4933   -0.7663 H   0  0  0  0  0  0  0  0  0  0  0  0
   -2.0390    0.2682   -0.0933 H   0  0  0  0  0  0  0  0  0  0  0  0
   -1.2859    1.3605    0.8598 H   0  0  0  0  0  0  0  0  0  0  0  0
   -3.8715   -0.4403    2.8242 C   0  0  0  0  0  0  0  0  0  0  0  0
   -4.4980   -0.3378    2.0001 H   0  0  0  0  0  0  0  0  0  0  0  0
   -3.6213    0.5418    3.0592 H   0  0  0  0  0  0  0  0  0  0  0  0
   -4.4673   -0.8371    3.6462 H   0  0  0  0  0  0  0  0  0  0  0  0
   -2.3872   -1.3854    2.3812 S   0  0  0  0  0  0  0  0  0  0  0  0
   -3.0561   -2.6436    1.3143 C   0  0  0  0  0  0  0  0  0  0  0  0
   -3.1072   -3.5164    1.8058 H   0  0  0  0  0  0  0  0  0  0  0  0
   -3.9769   -2.3830    1.0143 H   0  0  0  0  0  0  0  0  0  0  0  0
   -2.4695   -2.7554    0.5091 H   0  0  0  0  0  0  0  0  0  0  0  0
  1  5  1  0
  5  8  1  0
  1  2  1  0
  1  3  1  0
  1  4  1  0
  5  6  1  0
  5  7  1  0
  8  9  1  0
  8 10  1  0
  8 11  1  0
 12 16  1  0
 16 17  1  0
 12 13  1  0
 12 14  1  0
 12 15  1  0
 17 18  1  0
 17 19  1  0
 17 20  1  0
M  CHG  1   8   1
M  END
>  <PDB_ID>  (1603) 
pdb6gfv

>  <RESIDUE_NAME>  (1603) 
LYS   MET

>  <FRAG_NAME>  (1603) 
ETAM   MSM

>  <FRAG_ATOM_NUM>  (1603) 
fragi: 11  fragj: 9

>  <atom.prop.CHAIN_ID>  (1603) 
A A A A A A A A A A A Z Z Z Z Z Z Z Z Z

>  <atom.prop.IS_HEAVY_ATOM>  (1603) 
1 0 0 0 1 0 0 1 0 0 0 1 0 0 0 1 1 0 0 0

>  <DIFUSE_FUNC_ATOM>  (1603) 
n/a

>  <FINAL_SINGLE_POINT_ENERGY>  (1603) 
0

>  <NONCOV_INTER_ENERGY_QM>  (1603) 
0

>  <FF_Energy>  (1603) 
-4.43

>  <QM_Energy>  (1603) 
-11.53

>  <source>  (1603) 
ETAM_MSM

>  <Index>  (1603) 
10201

$$$$
ETAM-pdb5glg-A-LYS-263:MSM-pdb5glg-A-MET-238
     RDKit          3D

 20 18  0  0  0  0  0  0  0  0999 V2000
    1.2767    0.8353   -0.0000 C   0  0  0  0  0  0  0  0  0  0  0  0
    1.4757    1.1088    0.9384 H   0  0  0  0  0  0  0  0  0  0  0  0
    1.1258    1.6426   -0.5644 H   0  0  0  0  0  0  0  0  0  0  0  0
    2.1318    0.2861   -0.3938 H   0  0  0  0  0  0  0  0  0  0  0  0
    0.0000    0.0000    0.0000 C   0  0  0  0  0  0  0  0  0  0  0  0
   -0.0001   -0.5990   -0.8161 H   0  0  0  0  0  0  0  0  0  0  0  0
   -0.0005   -0.5986    0.8161 H   0  0  0  0  0  0  0  0  0  0  0  0
   -1.2767    0.8073    0.0000 N   0  0  0  0  0  4  0  0  0  0  0  0
   -1.6050    0.8877   -0.9363 H   0  0  0  0  0  0  0  0  0  0  0  0
   -1.9526    0.3381    0.5620 H   0  0  0  0  0  0  0  0  0  0  0  0
   -1.0850    1.7093    0.3750 H   0  0  0  0  0  0  0  0  0  0  0  0
   -0.1618    2.0234   -4.6244 C   0  0  0  0  0  0  0  0  0  0  0  0
    0.6205    2.2352   -5.2093 H   0  0  0  0  0  0  0  0  0  0  0  0
   -0.3524    2.7998   -4.0252 H   0  0  0  0  0  0  0  0  0  0  0  0
   -1.0282    1.8847   -5.2711 H   0  0  0  0  0  0  0  0  0  0  0  0
   -0.0200    0.5468   -3.8027 S   0  0  0  0  0  0  0  0  0  0  0  0
    1.0496   -0.4307   -4.8373 C   0  0  0  0  0  0  0  0  0  0  0  0
    1.2191   -1.3212   -4.4081 H   0  0  0  0  0  0  0  0  0  0  0  0
    0.6196   -0.5751   -5.7322 H   0  0  0  0  0  0  0  0  0  0  0  0
    1.9241    0.0423   -4.9667 H   0  0  0  0  0  0  0  0  0  0  0  0
  1  5  1  0
  5  8  1  0
  1  2  1  0
  1  3  1  0
  1  4  1  0
  5  6  1  0
  5  7  1  0
  8  9  1  0
  8 10  1  0
  8 11  1  0
 12 16  1  0
 16 17  1  0
 12 13  1  0
 12 14  1  0
 12 15  1  0
 17 18  1  0
 17 19  1  0
 17 20  1  0
M  CHG  1   8   1
M  END
>  <PDB_ID>  (1604) 
pdb5glg

>  <RESIDUE_NAME>  (1604) 
LYS   MET

>  <FRAG_NAME>  (1604) 
ETAM   MSM

>  <FRAG_ATOM_NUM>  (1604) 
fragi: 11  fragj: 9

>  <atom.prop.CHAIN_ID>  (1604) 
A A A A A A A A A A A Z Z Z Z Z Z Z Z Z

>  <atom.prop.IS_HEAVY_ATOM>  (1604) 
1 0 0 0 1 0 0 1 0 0 0 1 0 0 0 1 1 0 0 0

>  <DIFUSE_FUNC_ATOM>  (1604) 
n/a

>  <FINAL_SINGLE_POINT_ENERGY>  (1604) 
0

>  <NONCOV_INTER_ENERGY_QM>  (1604) 
0

>  <FF_Energy>  (1604) 
-5.01

>  <QM_Energy>  (1604) 
-10.92

>  <source>  (1604) 
ETAM_MSM

>  <Index>  (1604) 
10220

$$$$
ETAM-pdb6gos-A-LYS-4:MSM-pdb6gos-2-MET-213
     RDKit          3D

 20 18  0  0  0  0  0  0  0  0999 V2000
    1.2317    0.8771    0.0000 C   0  0  0  0  0  0  0  0  0  0  0  0
    1.2147    1.4541    0.8160 H   0  0  0  0  0  0  0  0  0  0  0  0
    1.2138    1.4538   -0.8164 H   0  0  0  0  0  0  0  0  0  0  0  0
    2.1558    0.2992    0.0008 H   0  0  0  0  0  0  0  0  0  0  0  0
    0.0000    0.0000    0.0000 C   0  0  0  0  0  0  0  0  0  0  0  0
    0.0082   -0.5771   -0.8165 H   0  0  0  0  0  0  0  0  0  0  0  0
    0.0079   -0.5775    0.8159 H   0  0  0  0  0  0  0  0  0  0  0  0
   -1.2317    0.8284    0.0000 N   0  0  0  0  0  4  0  0  0  0  0  0
   -2.0151    0.2611    0.2559 H   0  0  0  0  0  0  0  0  0  0  0  0
   -1.1314    1.5755    0.6576 H   0  0  0  0  0  0  0  0  0  0  0  0
   -1.3800    1.2063   -0.9145 H   0  0  0  0  0  0  0  0  0  0  0  0
   -2.1281    0.5422   -2.7642 C   0  0  0  0  0  0  0  0  0  0  0  0
   -2.6158    1.1271   -2.0865 H   0  0  0  0  0  0  0  0  0  0  0  0
   -1.8609   -0.3092   -2.2712 H   0  0  0  0  0  0  0  0  0  0  0  0
   -2.8205    0.2826   -3.5650 H   0  0  0  0  0  0  0  0  0  0  0  0
   -0.6628    1.3936   -3.4028 S   0  0  0  0  0  0  0  0  0  0  0  0
   -0.9448    3.1055   -2.9167 C   0  0  0  0  0  0  0  0  0  0  0  0
   -1.8982    3.3466   -3.0930 H   0  0  0  0  0  0  0  0  0  0  0  0
   -0.7465    3.2097   -1.9429 H   0  0  0  0  0  0  0  0  0  0  0  0
   -0.3445    3.7030   -3.4467 H   0  0  0  0  0  0  0  0  0  0  0  0
  1  5  1  0
  5  8  1  0
  1  2  1  0
  1  3  1  0
  1  4  1  0
  5  6  1  0
  5  7  1  0
  8  9  1  0
  8 10  1  0
  8 11  1  0
 12 16  1  0
 16 17  1  0
 12 13  1  0
 12 14  1  0
 12 15  1  0
 17 18  1  0
 17 19  1  0
 17 20  1  0
M  CHG  1   8   1
M  END
>  <PDB_ID>  (1605) 
pdb6gos

>  <RESIDUE_NAME>  (1605) 
LYS   MET

>  <FRAG_NAME>  (1605) 
ETAM   MSM

>  <FRAG_ATOM_NUM>  (1605) 
fragi: 11  fragj: 9

>  <atom.prop.CHAIN_ID>  (1605) 
A A A A A A A A A A A Z Z Z Z Z Z Z Z Z

>  <atom.prop.IS_HEAVY_ATOM>  (1605) 
1 0 0 0 1 0 0 1 0 0 0 1 0 0 0 1 1 0 0 0

>  <DIFUSE_FUNC_ATOM>  (1605) 
n/a

>  <FINAL_SINGLE_POINT_ENERGY>  (1605) 
0

>  <NONCOV_INTER_ENERGY_QM>  (1605) 
0

>  <FF_Energy>  (1605) 
1.21

>  <QM_Energy>  (1605) 
-4.6

>  <source>  (1605) 
ETAM_MSM

>  <Index>  (1605) 
10227

$$$$
ETAM-pdb5gp0-A-LYS-70:MSM-pdb5gp0-A-MET-64
     RDKit          3D

 20 18  0  0  0  0  0  0  0  0999 V2000
    1.2468    0.8636    0.0000 C   0  0  0  0  0  0  0  0  0  0  0  0
    1.1219    1.6020    0.6508 H   0  0  0  0  0  0  0  0  0  0  0  0
    1.3862    1.2204   -0.9151 H   0  0  0  0  0  0  0  0  0  0  0  0
    2.1195    0.2783    0.2900 H   0  0  0  0  0  0  0  0  0  0  0  0
    0.0000    0.0000    0.0000 C   0  0  0  0  0  0  0  0  0  0  0  0
    0.0107   -0.5882   -0.8160 H   0  0  0  0  0  0  0  0  0  0  0  0
    0.0095   -0.5879    0.8166 H   0  0  0  0  0  0  0  0  0  0  0  0
   -1.2468    0.8101   -0.0000 N   0  0  0  0  0  4  0  0  0  0  0  0
   -1.3730    1.2260   -0.9005 H   0  0  0  0  0  0  0  0  0  0  0  0
   -2.0270    0.2201    0.2072 H   0  0  0  0  0  0  0  0  0  0  0  0
   -1.1772    1.5278    0.6932 H   0  0  0  0  0  0  0  0  0  0  0  0
   -0.6167    1.1658   -4.7454 C   0  0  0  0  0  0  0  0  0  0  0  0
   -1.0466    0.8172   -5.6005 H   0  0  0  0  0  0  0  0  0  0  0  0
    0.0059    0.4312   -4.4133 H   0  0  0  0  0  0  0  0  0  0  0  0
   -0.0153    2.0398   -4.9954 H   0  0  0  0  0  0  0  0  0  0  0  0
   -1.8592    1.5652   -3.5130 S   0  0  0  0  0  0  0  0  0  0  0  0
   -0.9168    2.6673   -2.4601 C   0  0  0  0  0  0  0  0  0  0  0  0
   -0.1577    2.1650   -2.0438 H   0  0  0  0  0  0  0  0  0  0  0  0
   -0.5541    3.4240   -3.0059 H   0  0  0  0  0  0  0  0  0  0  0  0
   -1.5093    3.0313   -1.7397 H   0  0  0  0  0  0  0  0  0  0  0  0
  1  5  1  0
  5  8  1  0
  1  2  1  0
  1  3  1  0
  1  4  1  0
  5  6  1  0
  5  7  1  0
  8  9  1  0
  8 10  1  0
  8 11  1  0
 12 16  1  0
 16 17  1  0
 12 13  1  0
 12 14  1  0
 12 15  1  0
 17 18  1  0
 17 19  1  0
 17 20  1  0
M  CHG  1   8   1
M  END
>  <PDB_ID>  (1606) 
pdb5gp0

>  <RESIDUE_NAME>  (1606) 
LYS   MET

>  <FRAG_NAME>  (1606) 
ETAM   MSM

>  <FRAG_ATOM_NUM>  (1606) 
fragi: 11  fragj: 9

>  <atom.prop.CHAIN_ID>  (1606) 
A A A A A A A A A A A Z Z Z Z Z Z Z Z Z

>  <atom.prop.IS_HEAVY_ATOM>  (1606) 
1 0 0 0 1 0 0 1 0 0 0 1 0 0 0 1 1 0 0 0

>  <DIFUSE_FUNC_ATOM>  (1606) 
n/a

>  <FINAL_SINGLE_POINT_ENERGY>  (1606) 
0

>  <NONCOV_INTER_ENERGY_QM>  (1606) 
0

>  <FF_Energy>  (1606) 
-1.66

>  <QM_Energy>  (1606) 
-6.72

>  <source>  (1606) 
ETAM_MSM

>  <Index>  (1606) 
10229

$$$$
ETAM-pdb5gp0-E-LYS-64:MSM-pdb5gp0-E-MET-58
     RDKit          3D

 20 18  0  0  0  0  0  0  0  0999 V2000
    1.2473    0.8750    0.0000 C   0  0  0  0  0  0  0  0  0  0  0  0
    2.0038    0.3442   -0.3512 H   0  0  0  0  0  0  0  0  0  0  0  0
    1.4192    1.1771    0.9256 H   0  0  0  0  0  0  0  0  0  0  0  0
    1.0924    1.7445   -0.6389 H   0  0  0  0  0  0  0  0  0  0  0  0
    0.0000    0.0000    0.0000 C   0  0  0  0  0  0  0  0  0  0  0  0
    0.0093   -0.5795   -0.8157 H   0  0  0  0  0  0  0  0  0  0  0  0
    0.0092   -0.5799    0.8166 H   0  0  0  0  0  0  0  0  0  0  0  0
   -1.2473    0.8238    0.0000 N   0  0  0  0  0  4  0  0  0  0  0  0
   -1.2680    1.3882   -0.8239 H   0  0  0  0  0  0  0  0  0  0  0  0
   -2.0415    0.2178    0.0136 H   0  0  0  0  0  0  0  0  0  0  0  0
   -1.2547    1.4088    0.8095 H   0  0  0  0  0  0  0  0  0  0  0  0
    0.1412    0.3717    5.1015 C   0  0  0  0  0  0  0  0  0  0  0  0
    0.3480   -0.6196    4.9858 H   0  0  0  0  0  0  0  0  0  0  0  0
   -0.5556    0.4352    5.8421 H   0  0  0  0  0  0  0  0  0  0  0  0
    1.0475    0.8807    5.4298 H   0  0  0  0  0  0  0  0  0  0  0  0
   -0.4919    1.0770    3.5652 S   0  0  0  0  0  0  0  0  0  0  0  0
   -2.2375    0.7196    3.7198 C   0  0  0  0  0  0  0  0  0  0  0  0
   -2.3967   -0.2571    3.5649 H   0  0  0  0  0  0  0  0  0  0  0  0
   -2.5514    0.9648    4.6386 H   0  0  0  0  0  0  0  0  0  0  0  0
   -2.7515    1.2492    3.0426 H   0  0  0  0  0  0  0  0  0  0  0  0
  1  5  1  0
  5  8  1  0
  1  2  1  0
  1  3  1  0
  1  4  1  0
  5  6  1  0
  5  7  1  0
  8  9  1  0
  8 10  1  0
  8 11  1  0
 12 16  1  0
 16 17  1  0
 12 13  1  0
 12 14  1  0
 12 15  1  0
 17 18  1  0
 17 19  1  0
 17 20  1  0
M  CHG  1   8   1
M  END
>  <PDB_ID>  (1607) 
pdb5gp0

>  <RESIDUE_NAME>  (1607) 
LYS   MET

>  <FRAG_NAME>  (1607) 
ETAM   MSM

>  <FRAG_ATOM_NUM>  (1607) 
fragi: 11  fragj: 9

>  <atom.prop.CHAIN_ID>  (1607) 
A A A A A A A A A A A Z Z Z Z Z Z Z Z Z

>  <atom.prop.IS_HEAVY_ATOM>  (1607) 
1 0 0 0 1 0 0 1 0 0 0 1 0 0 0 1 1 0 0 0

>  <DIFUSE_FUNC_ATOM>  (1607) 
n/a

>  <FINAL_SINGLE_POINT_ENERGY>  (1607) 
0

>  <NONCOV_INTER_ENERGY_QM>  (1607) 
0

>  <FF_Energy>  (1607) 
-4.99

>  <QM_Energy>  (1607) 
-10.38

>  <source>  (1607) 
ETAM_MSM

>  <Index>  (1607) 
10230

$$$$
ETAM-pdb5gp0-F-LYS-64:MSM-pdb5gp0-F-MET-58
     RDKit          3D

 20 18  0  0  0  0  0  0  0  0999 V2000
    1.2564    0.8567   -0.0000 C   0  0  0  0  0  0  0  0  0  0  0  0
    1.9498    0.3884    0.5420 H   0  0  0  0  0  0  0  0  0  0  0  0
    1.0324    1.7344    0.4163 H   0  0  0  0  0  0  0  0  0  0  0  0
    1.6246    1.0123   -1.0141 H   0  0  0  0  0  0  0  0  0  0  0  0
    0.0000    0.0000    0.0000 C   0  0  0  0  0  0  0  0  0  0  0  0
    0.0132   -0.5956   -0.8160 H   0  0  0  0  0  0  0  0  0  0  0  0
    0.0123   -0.5957    0.8163 H   0  0  0  0  0  0  0  0  0  0  0  0
   -1.2564    0.7953    0.0000 N   0  0  0  0  0  4  0  0  0  0  0  0
   -1.7064    0.7062   -0.8881 H   0  0  0  0  0  0  0  0  0  0  0  0
   -1.8644    0.4561    0.7182 H   0  0  0  0  0  0  0  0  0  0  0  0
   -1.0413    1.7568    0.1701 H   0  0  0  0  0  0  0  0  0  0  0  0
   -1.9046    4.9599    2.6349 C   0  0  0  0  0  0  0  0  0  0  0  0
   -1.8734    4.3188    3.4181 H   0  0  0  0  0  0  0  0  0  0  0  0
   -2.7350    5.5297    2.7408 H   0  0  0  0  0  0  0  0  0  0  0  0
   -1.0306    5.6092    2.6855 H   0  0  0  0  0  0  0  0  0  0  0  0
   -1.9212    4.0733    1.0717 S   0  0  0  0  0  0  0  0  0  0  0  0
   -0.2072    3.6261    0.9843 C   0  0  0  0  0  0  0  0  0  0  0  0
    0.0008    2.9207    1.6687 H   0  0  0  0  0  0  0  0  0  0  0  0
    0.0089    3.2668    0.0724 H   0  0  0  0  0  0  0  0  0  0  0  0
    0.3678    4.4296    1.1615 H   0  0  0  0  0  0  0  0  0  0  0  0
  1  5  1  0
  5  8  1  0
  1  2  1  0
  1  3  1  0
  1  4  1  0
  5  6  1  0
  5  7  1  0
  8  9  1  0
  8 10  1  0
  8 11  1  0
 12 16  1  0
 16 17  1  0
 12 13  1  0
 12 14  1  0
 12 15  1  0
 17 18  1  0
 17 19  1  0
 17 20  1  0
M  CHG  1   8   1
M  END
>  <PDB_ID>  (1608) 
pdb5gp0

>  <RESIDUE_NAME>  (1608) 
LYS   MET

>  <FRAG_NAME>  (1608) 
ETAM   MSM

>  <FRAG_ATOM_NUM>  (1608) 
fragi: 11  fragj: 9

>  <atom.prop.CHAIN_ID>  (1608) 
A A A A A A A A A A A Z Z Z Z Z Z Z Z Z

>  <atom.prop.IS_HEAVY_ATOM>  (1608) 
1 0 0 0 1 0 0 1 0 0 0 1 0 0 0 1 1 0 0 0

>  <DIFUSE_FUNC_ATOM>  (1608) 
n/a

>  <FINAL_SINGLE_POINT_ENERGY>  (1608) 
0

>  <NONCOV_INTER_ENERGY_QM>  (1608) 
0

>  <FF_Energy>  (1608) 
2.59

>  <QM_Energy>  (1608) 
-4.0

>  <source>  (1608) 
ETAM_MSM

>  <Index>  (1608) 
10231

$$$$
ETAM-pdb5gp0-I-LYS-64:MSM-pdb5gp0-I-MET-58
     RDKit          3D

 20 18  0  0  0  0  0  0  0  0999 V2000
    1.2541    0.8859    0.0000 C   0  0  0  0  0  0  0  0  0  0  0  0
    2.0526    0.2976   -0.0789 H   0  0  0  0  0  0  0  0  0  0  0  0
    1.2795    1.3917    0.8561 H   0  0  0  0  0  0  0  0  0  0  0  0
    1.2559    1.5943   -0.8285 H   0  0  0  0  0  0  0  0  0  0  0  0
    0.0000    0.0000    0.0000 C   0  0  0  0  0  0  0  0  0  0  0  0
    0.0201   -0.5818   -0.8163 H   0  0  0  0  0  0  0  0  0  0  0  0
    0.0205   -0.5819    0.8164 H   0  0  0  0  0  0  0  0  0  0  0  0
   -1.2541    0.8060   -0.0000 N   0  0  0  0  0  4  0  0  0  0  0  0
   -2.0107    0.2390   -0.3235 H   0  0  0  0  0  0  0  0  0  0  0  0
   -1.4432    1.1216    0.9288 H   0  0  0  0  0  0  0  0  0  0  0  0
   -1.1412    1.5923   -0.6052 H   0  0  0  0  0  0  0  0  0  0  0  0
   -0.6098    1.2997    4.7882 C   0  0  0  0  0  0  0  0  0  0  0  0
   -0.4720    0.2902    4.7412 H   0  0  0  0  0  0  0  0  0  0  0  0
   -1.2977    1.4619    5.5238 H   0  0  0  0  0  0  0  0  0  0  0  0
    0.3307    1.7678    5.0788 H   0  0  0  0  0  0  0  0  0  0  0  0
   -1.2017    1.9375    3.2085 S   0  0  0  0  0  0  0  0  0  0  0  0
   -2.8047    1.1411    3.1082 C   0  0  0  0  0  0  0  0  0  0  0  0
   -2.6832    0.1661    2.9195 H   0  0  0  0  0  0  0  0  0  0  0  0
   -3.2900    1.2539    3.9759 H   0  0  0  0  0  0  0  0  0  0  0  0
   -3.3402    1.5573    2.3718 H   0  0  0  0  0  0  0  0  0  0  0  0
  1  5  1  0
  5  8  1  0
  1  2  1  0
  1  3  1  0
  1  4  1  0
  5  6  1  0
  5  7  1  0
  8  9  1  0
  8 10  1  0
  8 11  1  0
 12 16  1  0
 16 17  1  0
 12 13  1  0
 12 14  1  0
 12 15  1  0
 17 18  1  0
 17 19  1  0
 17 20  1  0
M  CHG  1   8   1
M  END
>  <PDB_ID>  (1609) 
pdb5gp0

>  <RESIDUE_NAME>  (1609) 
LYS   MET

>  <FRAG_NAME>  (1609) 
ETAM   MSM

>  <FRAG_ATOM_NUM>  (1609) 
fragi: 11  fragj: 9

>  <atom.prop.CHAIN_ID>  (1609) 
A A A A A A A A A A A Z Z Z Z Z Z Z Z Z

>  <atom.prop.IS_HEAVY_ATOM>  (1609) 
1 0 0 0 1 0 0 1 0 0 0 1 0 0 0 1 1 0 0 0

>  <DIFUSE_FUNC_ATOM>  (1609) 
n/a

>  <FINAL_SINGLE_POINT_ENERGY>  (1609) 
0

>  <NONCOV_INTER_ENERGY_QM>  (1609) 
0

>  <FF_Energy>  (1609) 
-5.15

>  <QM_Energy>  (1609) 
-12.56

>  <source>  (1609) 
ETAM_MSM

>  <Index>  (1609) 
10232

$$$$
ETAM-pdb5gpe-A-LYS-10:MSM-pdb5gpe-A-MET-2
     RDKit          3D

 20 18  0  0  0  0  0  0  0  0999 V2000
    1.2503    0.8752    0.0000 C   0  0  0  0  0  0  0  0  0  0  0  0
    1.0546    1.7000    0.5179 H   0  0  0  0  0  0  0  0  0  0  0  0
    1.4757    1.0979   -0.9412 H   0  0  0  0  0  0  0  0  0  0  0  0
    2.0916    0.3553    0.4582 H   0  0  0  0  0  0  0  0  0  0  0  0
    0.0000    0.0000    0.0000 C   0  0  0  0  0  0  0  0  0  0  0  0
    0.0186   -0.5875   -0.8161 H   0  0  0  0  0  0  0  0  0  0  0  0
    0.0183   -0.5867    0.8160 H   0  0  0  0  0  0  0  0  0  0  0  0
   -1.2503    0.8011    0.0000 N   0  0  0  0  0  4  0  0  0  0  0  0
   -1.6938    0.7275   -0.8933 H   0  0  0  0  0  0  0  0  0  0  0  0
   -1.8667    0.4563    0.7079 H   0  0  0  0  0  0  0  0  0  0  0  0
   -1.0321    1.7594    0.1857 H   0  0  0  0  0  0  0  0  0  0  0  0
   -0.8916    5.1616    0.9325 C   0  0  0  0  0  0  0  0  0  0  0  0
   -1.2899    4.5322    1.5939 H   0  0  0  0  0  0  0  0  0  0  0  0
   -1.5540    5.3685    0.2175 H   0  0  0  0  0  0  0  0  0  0  0  0
   -0.5867    6.0805    1.4332 H   0  0  0  0  0  0  0  0  0  0  0  0
    0.6121    4.4698    0.2236 S   0  0  0  0  0  0  0  0  0  0  0  0
    0.5995    5.2382   -1.3966 C   0  0  0  0  0  0  0  0  0  0  0  0
    1.1146    6.0957   -1.3647 H   0  0  0  0  0  0  0  0  0  0  0  0
    1.0213    4.6222   -2.0626 H   0  0  0  0  0  0  0  0  0  0  0  0
   -0.3443    5.4270   -1.6706 H   0  0  0  0  0  0  0  0  0  0  0  0
  1  5  1  0
  5  8  1  0
  1  2  1  0
  1  3  1  0
  1  4  1  0
  5  6  1  0
  5  7  1  0
  8  9  1  0
  8 10  1  0
  8 11  1  0
 12 16  1  0
 16 17  1  0
 12 13  1  0
 12 14  1  0
 12 15  1  0
 17 18  1  0
 17 19  1  0
 17 20  1  0
M  CHG  1   8   1
M  END
>  <PDB_ID>  (1610) 
pdb5gpe

>  <RESIDUE_NAME>  (1610) 
LYS   MET

>  <FRAG_NAME>  (1610) 
ETAM   MSM

>  <FRAG_ATOM_NUM>  (1610) 
fragi: 11  fragj: 9

>  <atom.prop.CHAIN_ID>  (1610) 
A A A A A A A A A A A Z Z Z Z Z Z Z Z Z

>  <atom.prop.IS_HEAVY_ATOM>  (1610) 
1 0 0 0 1 0 0 1 0 0 0 1 0 0 0 1 1 0 0 0

>  <DIFUSE_FUNC_ATOM>  (1610) 
n/a

>  <FINAL_SINGLE_POINT_ENERGY>  (1610) 
0

>  <NONCOV_INTER_ENERGY_QM>  (1610) 
0

>  <FF_Energy>  (1610) 
-3.58

>  <QM_Energy>  (1610) 
-9.35

>  <source>  (1610) 
ETAM_MSM

>  <Index>  (1610) 
10236

$$$$
ETAM-pdb6gu1-A-LYS-117:MSM-pdb6gu1-A-MET-114
     RDKit          3D

 20 18  0  0  0  0  0  0  0  0999 V2000
    1.2649    0.8501   -0.0000 C   0  0  0  0  0  0  0  0  0  0  0  0
    2.0572    0.2414   -0.0074 H   0  0  0  0  0  0  0  0  0  0  0  0
    1.2749    1.4039    0.8316 H   0  0  0  0  0  0  0  0  0  0  0  0
    1.3290    1.5143   -0.8619 H   0  0  0  0  0  0  0  0  0  0  0  0
    0.0000    0.0000    0.0000 C   0  0  0  0  0  0  0  0  0  0  0  0
    0.0174   -0.6029   -0.8158 H   0  0  0  0  0  0  0  0  0  0  0  0
    0.0171   -0.6032    0.8162 H   0  0  0  0  0  0  0  0  0  0  0  0
   -1.2649    0.7784    0.0000 N   0  0  0  0  0  4  0  0  0  0  0  0
   -1.1518    1.5970    0.5637 H   0  0  0  0  0  0  0  0  0  0  0  0
   -1.4912    1.0460   -0.9369 H   0  0  0  0  0  0  0  0  0  0  0  0
   -2.0028    0.2156    0.3732 H   0  0  0  0  0  0  0  0  0  0  0  0
   -2.6824    3.9868    2.7925 C   0  0  0  0  0  0  0  0  0  0  0  0
   -2.4486    3.9905    3.8145 H   0  0  0  0  0  0  0  0  0  0  0  0
   -3.6629    4.3578    2.7846 H   0  0  0  0  0  0  0  0  0  0  0  0
   -2.0423    4.7189    2.3000 H   0  0  0  0  0  0  0  0  0  0  0  0
   -2.6434    2.3062    2.1469 S   0  0  0  0  0  0  0  0  0  0  0  0
   -1.3058    1.5688    3.1065 C   0  0  0  0  0  0  0  0  0  0  0  0
   -0.9399    0.7825    2.6114 H   0  0  0  0  0  0  0  0  0  0  0  0
   -0.5847    2.2467    3.2412 H   0  0  0  0  0  0  0  0  0  0  0  0
   -1.6600    1.2729    3.9926 H   0  0  0  0  0  0  0  0  0  0  0  0
  1  5  1  0
  5  8  1  0
  1  2  1  0
  1  3  1  0
  1  4  1  0
  5  6  1  0
  5  7  1  0
  8  9  1  0
  8 10  1  0
  8 11  1  0
 12 16  1  0
 16 17  1  0
 12 13  1  0
 12 14  1  0
 12 15  1  0
 17 18  1  0
 17 19  1  0
 17 20  1  0
M  CHG  1   8   1
M  END
>  <PDB_ID>  (1611) 
pdb6gu1

>  <RESIDUE_NAME>  (1611) 
LYS   MET

>  <FRAG_NAME>  (1611) 
ETAM   MSM

>  <FRAG_ATOM_NUM>  (1611) 
fragi: 11  fragj: 9

>  <atom.prop.CHAIN_ID>  (1611) 
A A A A A A A A A A A Z Z Z Z Z Z Z Z Z

>  <atom.prop.IS_HEAVY_ATOM>  (1611) 
1 0 0 0 1 0 0 1 0 0 0 1 0 0 0 1 1 0 0 0

>  <DIFUSE_FUNC_ATOM>  (1611) 
n/a

>  <FINAL_SINGLE_POINT_ENERGY>  (1611) 
0

>  <NONCOV_INTER_ENERGY_QM>  (1611) 
0

>  <FF_Energy>  (1611) 
-1.64

>  <QM_Energy>  (1611) 
-10.74

>  <source>  (1611) 
ETAM_MSM

>  <Index>  (1611) 
10240

$$$$
ETAM-pdb6gup-A-LYS-100:MSM-pdb6gup-A-MET-154
     RDKit          3D

 20 18  0  0  0  0  0  0  0  0999 V2000
    1.2399    0.8767    0.0000 C   0  0  0  0  0  0  0  0  0  0  0  0
    1.2999    1.3438    0.8850 H   0  0  0  0  0  0  0  0  0  0  0  0
    1.1466    1.5609   -0.7263 H   0  0  0  0  0  0  0  0  0  0  0  0
    2.1626    0.3195   -0.1623 H   0  0  0  0  0  0  0  0  0  0  0  0
    0.0000    0.0000    0.0000 C   0  0  0  0  0  0  0  0  0  0  0  0
    0.0079   -0.5767   -0.8161 H   0  0  0  0  0  0  0  0  0  0  0  0
    0.0081   -0.5778    0.8158 H   0  0  0  0  0  0  0  0  0  0  0  0
   -1.2399    0.8291   -0.0000 N   0  0  0  0  0  4  0  0  0  0  0  0
   -1.2146    1.4603   -0.7742 H   0  0  0  0  0  0  0  0  0  0  0  0
   -2.0364    0.2313   -0.0788 H   0  0  0  0  0  0  0  0  0  0  0  0
   -1.2911    1.3457    0.8536 H   0  0  0  0  0  0  0  0  0  0  0  0
   -0.7923    5.5126   -1.8339 C   0  0  0  0  0  0  0  0  0  0  0  0
   -0.3496    6.0714   -2.5580 H   0  0  0  0  0  0  0  0  0  0  0  0
   -1.1178    6.1595   -1.1201 H   0  0  0  0  0  0  0  0  0  0  0  0
   -1.6565    5.0078   -2.2658 H   0  0  0  0  0  0  0  0  0  0  0  0
    0.3618    4.3195   -1.1439 S   0  0  0  0  0  0  0  0  0  0  0  0
    0.7880    3.4076   -2.6226 C   0  0  0  0  0  0  0  0  0  0  0  0
    1.7484    3.1277   -2.5810 H   0  0  0  0  0  0  0  0  0  0  0  0
    0.2093    2.5937   -2.6952 H   0  0  0  0  0  0  0  0  0  0  0  0
    0.6467    3.9864   -3.4279 H   0  0  0  0  0  0  0  0  0  0  0  0
  1  5  1  0
  5  8  1  0
  1  2  1  0
  1  3  1  0
  1  4  1  0
  5  6  1  0
  5  7  1  0
  8  9  1  0
  8 10  1  0
  8 11  1  0
 12 16  1  0
 16 17  1  0
 12 13  1  0
 12 14  1  0
 12 15  1  0
 17 18  1  0
 17 19  1  0
 17 20  1  0
M  CHG  1   8   1
M  END
>  <PDB_ID>  (1612) 
pdb6gup

>  <RESIDUE_NAME>  (1612) 
LYS   MET

>  <FRAG_NAME>  (1612) 
ETAM   MSM

>  <FRAG_ATOM_NUM>  (1612) 
fragi: 11  fragj: 9

>  <atom.prop.CHAIN_ID>  (1612) 
A A A A A A A A A A A Z Z Z Z Z Z Z Z Z

>  <atom.prop.IS_HEAVY_ATOM>  (1612) 
1 0 0 0 1 0 0 1 0 0 0 1 0 0 0 1 1 0 0 0

>  <DIFUSE_FUNC_ATOM>  (1612) 
n/a

>  <FINAL_SINGLE_POINT_ENERGY>  (1612) 
0

>  <NONCOV_INTER_ENERGY_QM>  (1612) 
0

>  <FF_Energy>  (1612) 
-3.17

>  <QM_Energy>  (1612) 
-8.35

>  <source>  (1612) 
ETAM_MSM

>  <Index>  (1612) 
10243

$$$$
ETAM-pdb5gpe-B-LYS-10:MSM-pdb5gpe-B-MET-2
     RDKit          3D

 20 18  0  0  0  0  0  0  0  0999 V2000
    1.2505    0.8780   -0.0000 C   0  0  0  0  0  0  0  0  0  0  0  0
    1.0533    1.7007    0.5193 H   0  0  0  0  0  0  0  0  0  0  0  0
    1.4733    1.1021   -0.9406 H   0  0  0  0  0  0  0  0  0  0  0  0
    2.0920    0.3568    0.4563 H   0  0  0  0  0  0  0  0  0  0  0  0
    0.0000    0.0000    0.0000 C   0  0  0  0  0  0  0  0  0  0  0  0
    0.0208   -0.5873   -0.8159 H   0  0  0  0  0  0  0  0  0  0  0  0
    0.0207   -0.5873    0.8161 H   0  0  0  0  0  0  0  0  0  0  0  0
   -1.2505    0.7976   -0.0000 N   0  0  0  0  0  4  0  0  0  0  0  0
   -1.9747    0.2837   -0.4602 H   0  0  0  0  0  0  0  0  0  0  0  0
   -1.5249    0.9885    0.9428 H   0  0  0  0  0  0  0  0  0  0  0  0
   -1.0970    1.6600   -0.4833 H   0  0  0  0  0  0  0  0  0  0  0  0
   -0.9078    5.1687    0.9310 C   0  0  0  0  0  0  0  0  0  0  0  0
   -1.3127    4.5412    1.5927 H   0  0  0  0  0  0  0  0  0  0  0  0
   -1.5687    5.3732    0.2125 H   0  0  0  0  0  0  0  0  0  0  0  0
   -0.6099    6.0899    1.4318 H   0  0  0  0  0  0  0  0  0  0  0  0
    0.5971    4.4697    0.2301 S   0  0  0  0  0  0  0  0  0  0  0  0
    0.5791    5.2335   -1.3940 C   0  0  0  0  0  0  0  0  0  0  0  0
    0.6527    6.2265   -1.2964 H   0  0  0  0  0  0  0  0  0  0  0  0
    1.3510    4.8936   -1.9311 H   0  0  0  0  0  0  0  0  0  0  0  0
   -0.2768    5.0069   -1.8605 H   0  0  0  0  0  0  0  0  0  0  0  0
  1  5  1  0
  5  8  1  0
  1  2  1  0
  1  3  1  0
  1  4  1  0
  5  6  1  0
  5  7  1  0
  8  9  1  0
  8 10  1  0
  8 11  1  0
 12 16  1  0
 16 17  1  0
 12 13  1  0
 12 14  1  0
 12 15  1  0
 17 18  1  0
 17 19  1  0
 17 20  1  0
M  CHG  1   8   1
M  END
>  <PDB_ID>  (1613) 
pdb5gpe

>  <RESIDUE_NAME>  (1613) 
LYS   MET

>  <FRAG_NAME>  (1613) 
ETAM   MSM

>  <FRAG_ATOM_NUM>  (1613) 
fragi: 11  fragj: 9

>  <atom.prop.CHAIN_ID>  (1613) 
A A A A A A A A A A A Z Z Z Z Z Z Z Z Z

>  <atom.prop.IS_HEAVY_ATOM>  (1613) 
1 0 0 0 1 0 0 1 0 0 0 1 0 0 0 1 1 0 0 0

>  <DIFUSE_FUNC_ATOM>  (1613) 
n/a

>  <FINAL_SINGLE_POINT_ENERGY>  (1613) 
0

>  <NONCOV_INTER_ENERGY_QM>  (1613) 
0

>  <FF_Energy>  (1613) 
-3.46

>  <QM_Energy>  (1613) 
-8.57

>  <source>  (1613) 
ETAM_MSM

>  <Index>  (1613) 
10246

$$$$
ETAM-pdb5gpe-C-LYS-10:MSM-pdb5gpe-C-MET-2
     RDKit          3D

 20 18  0  0  0  0  0  0  0  0999 V2000
    1.2480    0.8791   -0.0000 C   0  0  0  0  0  0  0  0  0  0  0  0
    1.0514    1.7016    0.5203 H   0  0  0  0  0  0  0  0  0  0  0  0
    1.4711    1.1042   -0.9406 H   0  0  0  0  0  0  0  0  0  0  0  0
    2.0904    0.3591    0.4561 H   0  0  0  0  0  0  0  0  0  0  0  0
    0.0000    0.0000    0.0000 C   0  0  0  0  0  0  0  0  0  0  0  0
    0.0214   -0.5862   -0.8167 H   0  0  0  0  0  0  0  0  0  0  0  0
    0.0207   -0.5870    0.8162 H   0  0  0  0  0  0  0  0  0  0  0  0
   -1.2480    0.7982   -0.0000 N   0  0  0  0  0  4  0  0  0  0  0  0
   -1.5474    0.9523    0.9428 H   0  0  0  0  0  0  0  0  0  0  0  0
   -1.0814    1.6795   -0.4435 H   0  0  0  0  0  0  0  0  0  0  0  0
   -1.9617    0.3042   -0.4992 H   0  0  0  0  0  0  0  0  0  0  0  0
   -0.9108    5.1700    0.9222 C   0  0  0  0  0  0  0  0  0  0  0  0
   -1.3100    4.5428    1.5870 H   0  0  0  0  0  0  0  0  0  0  0  0
   -1.5732    5.3698    0.2040 H   0  0  0  0  0  0  0  0  0  0  0  0
   -0.6142    6.0938    1.4189 H   0  0  0  0  0  0  0  0  0  0  0  0
    0.5967    4.4741    0.2185 S   0  0  0  0  0  0  0  0  0  0  0  0
    0.5722    5.2275   -1.4082 C   0  0  0  0  0  0  0  0  0  0  0  0
    0.1298    4.6075   -2.0581 H   0  0  0  0  0  0  0  0  0  0  0  0
    0.0636    6.0886   -1.3713 H   0  0  0  0  0  0  0  0  0  0  0  0
    1.5104    5.4085   -1.7074 H   0  0  0  0  0  0  0  0  0  0  0  0
  1  5  1  0
  5  8  1  0
  1  2  1  0
  1  3  1  0
  1  4  1  0
  5  6  1  0
  5  7  1  0
  8  9  1  0
  8 10  1  0
  8 11  1  0
 12 16  1  0
 16 17  1  0
 12 13  1  0
 12 14  1  0
 12 15  1  0
 17 18  1  0
 17 19  1  0
 17 20  1  0
M  CHG  1   8   1
M  END
>  <PDB_ID>  (1614) 
pdb5gpe

>  <RESIDUE_NAME>  (1614) 
LYS   MET

>  <FRAG_NAME>  (1614) 
ETAM   MSM

>  <FRAG_ATOM_NUM>  (1614) 
fragi: 11  fragj: 9

>  <atom.prop.CHAIN_ID>  (1614) 
A A A A A A A A A A A Z Z Z Z Z Z Z Z Z

>  <atom.prop.IS_HEAVY_ATOM>  (1614) 
1 0 0 0 1 0 0 1 0 0 0 1 0 0 0 1 1 0 0 0

>  <DIFUSE_FUNC_ATOM>  (1614) 
n/a

>  <FINAL_SINGLE_POINT_ENERGY>  (1614) 
0

>  <NONCOV_INTER_ENERGY_QM>  (1614) 
0

>  <FF_Energy>  (1614) 
-3.45

>  <QM_Energy>  (1614) 
-8.53

>  <source>  (1614) 
ETAM_MSM

>  <Index>  (1614) 
10247

$$$$
ETAM-pdb5gpe-D-LYS-10:MSM-pdb5gpe-D-MET-2
     RDKit          3D

 20 18  0  0  0  0  0  0  0  0999 V2000
    1.2481    0.8724    0.0000 C   0  0  0  0  0  0  0  0  0  0  0  0
    1.0546    1.6965    0.5192 H   0  0  0  0  0  0  0  0  0  0  0  0
    1.4746    1.0959   -0.9402 H   0  0  0  0  0  0  0  0  0  0  0  0
    2.0873    0.3488    0.4580 H   0  0  0  0  0  0  0  0  0  0  0  0
    0.0000    0.0000    0.0000 C   0  0  0  0  0  0  0  0  0  0  0  0
    0.0170   -0.5874   -0.8159 H   0  0  0  0  0  0  0  0  0  0  0  0
    0.0164   -0.5879    0.8169 H   0  0  0  0  0  0  0  0  0  0  0  0
   -1.2481    0.8029    0.0000 N   0  0  0  0  0  4  0  0  0  0  0  0
   -1.9587    0.3147   -0.5076 H   0  0  0  0  0  0  0  0  0  0  0  0
   -1.5513    0.9481    0.9424 H   0  0  0  0  0  0  0  0  0  0  0  0
   -1.0765    1.6875   -0.4344 H   0  0  0  0  0  0  0  0  0  0  0  0
   -0.8821    5.1689    0.9252 C   0  0  0  0  0  0  0  0  0  0  0  0
   -1.2896    4.5409    1.5836 H   0  0  0  0  0  0  0  0  0  0  0  0
   -1.5381    5.3782    0.2046 H   0  0  0  0  0  0  0  0  0  0  0  0
   -0.5797    6.0868    1.4294 H   0  0  0  0  0  0  0  0  0  0  0  0
    0.6240    4.4689    0.2284 S   0  0  0  0  0  0  0  0  0  0  0  0
    0.6158    5.2348   -1.3971 C   0  0  0  0  0  0  0  0  0  0  0  0
    0.1564    4.6296   -2.0481 H   0  0  0  0  0  0  0  0  0  0  0  0
    0.1295    6.1076   -1.3512 H   0  0  0  0  0  0  0  0  0  0  0  0
    1.5571    5.3928   -1.6957 H   0  0  0  0  0  0  0  0  0  0  0  0
  1  5  1  0
  5  8  1  0
  1  2  1  0
  1  3  1  0
  1  4  1  0
  5  6  1  0
  5  7  1  0
  8  9  1  0
  8 10  1  0
  8 11  1  0
 12 16  1  0
 16 17  1  0
 12 13  1  0
 12 14  1  0
 12 15  1  0
 17 18  1  0
 17 19  1  0
 17 20  1  0
M  CHG  1   8   1
M  END
>  <PDB_ID>  (1615) 
pdb5gpe

>  <RESIDUE_NAME>  (1615) 
LYS   MET

>  <FRAG_NAME>  (1615) 
ETAM   MSM

>  <FRAG_ATOM_NUM>  (1615) 
fragi: 11  fragj: 9

>  <atom.prop.CHAIN_ID>  (1615) 
A A A A A A A A A A A Z Z Z Z Z Z Z Z Z

>  <atom.prop.IS_HEAVY_ATOM>  (1615) 
1 0 0 0 1 0 0 1 0 0 0 1 0 0 0 1 1 0 0 0

>  <DIFUSE_FUNC_ATOM>  (1615) 
n/a

>  <FINAL_SINGLE_POINT_ENERGY>  (1615) 
0

>  <NONCOV_INTER_ENERGY_QM>  (1615) 
0

>  <FF_Energy>  (1615) 
-3.44

>  <QM_Energy>  (1615) 
-8.51

>  <source>  (1615) 
ETAM_MSM

>  <Index>  (1615) 
10249

$$$$
ETAM-pdb6gos-C-LYS-24:MSM-pdb6gos-D-MET-1
     RDKit          3D

 20 18  0  0  0  0  0  0  0  0999 V2000
    1.2193    0.8636   -0.0000 C   0  0  0  0  0  0  0  0  0  0  0  0
    1.3805    1.2077    0.9303 H   0  0  0  0  0  0  0  0  0  0  0  0
    1.0692    1.6471   -0.6110 H   0  0  0  0  0  0  0  0  0  0  0  0
    2.1186    0.3430   -0.3293 H   0  0  0  0  0  0  0  0  0  0  0  0
    0.0000    0.0000    0.0000 C   0  0  0  0  0  0  0  0  0  0  0  0
   -0.0177   -0.5644   -0.8163 H   0  0  0  0  0  0  0  0  0  0  0  0
   -0.0188   -0.5639    0.8161 H   0  0  0  0  0  0  0  0  0  0  0  0
   -1.2193    0.8817    0.0000 N   0  0  0  0  0  4  0  0  0  0  0  0
   -1.9547    0.4170   -0.4881 H   0  0  0  0  0  0  0  0  0  0  0  0
   -1.4929    1.0557    0.9427 H   0  0  0  0  0  0  0  0  0  0  0  0
   -0.9974    1.7404   -0.4547 H   0  0  0  0  0  0  0  0  0  0  0  0
   -4.2271    0.4208    3.2445 C   0  0  0  0  0  0  0  0  0  0  0  0
   -3.4604    1.0943    3.3675 H   0  0  0  0  0  0  0  0  0  0  0  0
   -3.8268   -0.4928    3.4927 H   0  0  0  0  0  0  0  0  0  0  0  0
   -5.0041    0.6584    3.9710 H   0  0  0  0  0  0  0  0  0  0  0  0
   -4.8265    0.4260    1.5588 S   0  0  0  0  0  0  0  0  0  0  0  0
   -5.7485   -1.1240    1.5162 C   0  0  0  0  0  0  0  0  0  0  0  0
   -6.6817   -0.9611    1.8336 H   0  0  0  0  0  0  0  0  0  0  0  0
   -5.7672   -1.4709    0.5797 H   0  0  0  0  0  0  0  0  0  0  0  0
   -5.3019   -1.7895    2.1125 H   0  0  0  0  0  0  0  0  0  0  0  0
  1  5  1  0
  5  8  1  0
  1  2  1  0
  1  3  1  0
  1  4  1  0
  5  6  1  0
  5  7  1  0
  8  9  1  0
  8 10  1  0
  8 11  1  0
 12 16  1  0
 16 17  1  0
 12 13  1  0
 12 14  1  0
 12 15  1  0
 17 18  1  0
 17 19  1  0
 17 20  1  0
M  CHG  1   8   1
M  END
>  <PDB_ID>  (1616) 
pdb6gos

>  <RESIDUE_NAME>  (1616) 
LYS   MET

>  <FRAG_NAME>  (1616) 
ETAM   MSM

>  <FRAG_ATOM_NUM>  (1616) 
fragi: 11  fragj: 9

>  <atom.prop.CHAIN_ID>  (1616) 
A A A A A A A A A A A Z Z Z Z Z Z Z Z Z

>  <atom.prop.IS_HEAVY_ATOM>  (1616) 
1 0 0 0 1 0 0 1 0 0 0 1 0 0 0 1 1 0 0 0

>  <DIFUSE_FUNC_ATOM>  (1616) 
n/a

>  <FINAL_SINGLE_POINT_ENERGY>  (1616) 
0

>  <NONCOV_INTER_ENERGY_QM>  (1616) 
0

>  <FF_Energy>  (1616) 
-3.62

>  <QM_Energy>  (1616) 
-8.98

>  <source>  (1616) 
ETAM_MSM

>  <Index>  (1616) 
10250

$$$$
ETAM-pdb5gsn-A-LYS-418:MSM-pdb5gsn-A-MET-425
     RDKit          3D

 20 18  0  0  0  0  0  0  0  0999 V2000
    1.2606    0.8649   -0.0000 C   0  0  0  0  0  0  0  0  0  0  0  0
    1.2932    1.3728   -0.8528 H   0  0  0  0  0  0  0  0  0  0  0  0
    2.0508    0.2681    0.0819 H   0  0  0  0  0  0  0  0  0  0  0  0
    1.2599    1.5693    0.8317 H   0  0  0  0  0  0  0  0  0  0  0  0
    0.0000    0.0000    0.0000 C   0  0  0  0  0  0  0  0  0  0  0  0
    0.0116   -0.5879   -0.8160 H   0  0  0  0  0  0  0  0  0  0  0  0
    0.0112   -0.5884    0.8160 H   0  0  0  0  0  0  0  0  0  0  0  0
   -1.2606    0.8080    0.0000 N   0  0  0  0  0  4  0  0  0  0  0  0
   -1.9993    0.2614    0.3901 H   0  0  0  0  0  0  0  0  0  0  0  0
   -1.1217    1.6304    0.5489 H   0  0  0  0  0  0  0  0  0  0  0  0
   -1.4864    1.0607   -0.9387 H   0  0  0  0  0  0  0  0  0  0  0  0
   -2.2856    2.7866    3.8006 C   0  0  0  0  0  0  0  0  0  0  0  0
   -1.8224    1.8711    3.7123 H   0  0  0  0  0  0  0  0  0  0  0  0
   -3.2937    2.5784    3.7628 H   0  0  0  0  0  0  0  0  0  0  0  0
   -2.0547    3.1951    4.7844 H   0  0  0  0  0  0  0  0  0  0  0  0
   -1.8098    3.8732    2.4370 S   0  0  0  0  0  0  0  0  0  0  0  0
   -3.2873    4.8698    2.2649 C   0  0  0  0  0  0  0  0  0  0  0  0
   -4.0445    4.4369    2.7565 H   0  0  0  0  0  0  0  0  0  0  0  0
   -3.1241    5.7820    2.6445 H   0  0  0  0  0  0  0  0  0  0  0  0
   -3.5268    4.9523    1.2956 H   0  0  0  0  0  0  0  0  0  0  0  0
  1  5  1  0
  5  8  1  0
  1  2  1  0
  1  3  1  0
  1  4  1  0
  5  6  1  0
  5  7  1  0
  8  9  1  0
  8 10  1  0
  8 11  1  0
 12 16  1  0
 16 17  1  0
 12 13  1  0
 12 14  1  0
 12 15  1  0
 17 18  1  0
 17 19  1  0
 17 20  1  0
M  CHG  1   8   1
M  END
>  <PDB_ID>  (1617) 
pdb5gsn

>  <RESIDUE_NAME>  (1617) 
LYS   MET

>  <FRAG_NAME>  (1617) 
ETAM   MSM

>  <FRAG_ATOM_NUM>  (1617) 
fragi: 11  fragj: 9

>  <atom.prop.CHAIN_ID>  (1617) 
A A A A A A A A A A A Z Z Z Z Z Z Z Z Z

>  <atom.prop.IS_HEAVY_ATOM>  (1617) 
1 0 0 0 1 0 0 1 0 0 0 1 0 0 0 1 1 0 0 0

>  <DIFUSE_FUNC_ATOM>  (1617) 
n/a

>  <FINAL_SINGLE_POINT_ENERGY>  (1617) 
0

>  <NONCOV_INTER_ENERGY_QM>  (1617) 
0

>  <FF_Energy>  (1617) 
-3.88

>  <QM_Energy>  (1617) 
-10.77

>  <source>  (1617) 
ETAM_MSM

>  <Index>  (1617) 
10253

$$$$
ETAM-pdb5gpe-F-LYS-10:MSM-pdb5gpe-F-MET-2
     RDKit          3D

 20 18  0  0  0  0  0  0  0  0999 V2000
    1.2492    0.8768    0.0000 C   0  0  0  0  0  0  0  0  0  0  0  0
    1.0519    1.6998    0.5198 H   0  0  0  0  0  0  0  0  0  0  0  0
    1.4713    1.1021   -0.9410 H   0  0  0  0  0  0  0  0  0  0  0  0
    2.0908    0.3552    0.4558 H   0  0  0  0  0  0  0  0  0  0  0  0
    0.0000    0.0000    0.0000 C   0  0  0  0  0  0  0  0  0  0  0  0
    0.0191   -0.5869   -0.8164 H   0  0  0  0  0  0  0  0  0  0  0  0
    0.0190   -0.5873    0.8163 H   0  0  0  0  0  0  0  0  0  0  0  0
   -1.2492    0.7998   -0.0000 N   0  0  0  0  0  4  0  0  0  0  0  0
   -1.7276    0.6717   -0.8697 H   0  0  0  0  0  0  0  0  0  0  0  0
   -1.8378    0.4999    0.7515 H   0  0  0  0  0  0  0  0  0  0  0  0
   -1.0258    1.7683    0.1185 H   0  0  0  0  0  0  0  0  0  0  0  0
   -0.9006    5.1719    0.9392 C   0  0  0  0  0  0  0  0  0  0  0  0
   -1.3037    4.5433    1.6022 H   0  0  0  0  0  0  0  0  0  0  0  0
   -1.5653    5.3751    0.2218 H   0  0  0  0  0  0  0  0  0  0  0  0
   -0.6045    6.0936    1.4399 H   0  0  0  0  0  0  0  0  0  0  0  0
    0.6026    4.4708    0.2316 S   0  0  0  0  0  0  0  0  0  0  0  0
    0.5893    5.2356   -1.3887 C   0  0  0  0  0  0  0  0  0  0  0  0
    0.8442    6.2005   -1.3066 H   0  0  0  0  0  0  0  0  0  0  0  0
    1.2442    4.7689   -1.9855 H   0  0  0  0  0  0  0  0  0  0  0  0
   -0.3276    5.1664   -1.7849 H   0  0  0  0  0  0  0  0  0  0  0  0
  1  5  1  0
  5  8  1  0
  1  2  1  0
  1  3  1  0
  1  4  1  0
  5  6  1  0
  5  7  1  0
  8  9  1  0
  8 10  1  0
  8 11  1  0
 12 16  1  0
 16 17  1  0
 12 13  1  0
 12 14  1  0
 12 15  1  0
 17 18  1  0
 17 19  1  0
 17 20  1  0
M  CHG  1   8   1
M  END
>  <PDB_ID>  (1618) 
pdb5gpe

>  <RESIDUE_NAME>  (1618) 
LYS   MET

>  <FRAG_NAME>  (1618) 
ETAM   MSM

>  <FRAG_ATOM_NUM>  (1618) 
fragi: 11  fragj: 9

>  <atom.prop.CHAIN_ID>  (1618) 
A A A A A A A A A A A Z Z Z Z Z Z Z Z Z

>  <atom.prop.IS_HEAVY_ATOM>  (1618) 
1 0 0 0 1 0 0 1 0 0 0 1 0 0 0 1 1 0 0 0

>  <DIFUSE_FUNC_ATOM>  (1618) 
n/a

>  <FINAL_SINGLE_POINT_ENERGY>  (1618) 
0

>  <NONCOV_INTER_ENERGY_QM>  (1618) 
0

>  <FF_Energy>  (1618) 
-3.59

>  <QM_Energy>  (1618) 
-9.47

>  <source>  (1618) 
ETAM_MSM

>  <Index>  (1618) 
10255

$$$$
ETAM-pdb5gva-A-LYS-66:MSM-pdb5gva-A-MET-124
     RDKit          3D

 20 18  0  0  0  0  0  0  0  0999 V2000
    1.2428    0.8907    0.0000 C   0  0  0  0  0  0  0  0  0  0  0  0
    1.2489    1.4229   -0.8327 H   0  0  0  0  0  0  0  0  0  0  0  0
    2.0430    0.3143    0.0654 H   0  0  0  0  0  0  0  0  0  0  0  0
    1.2219    1.5684    0.8534 H   0  0  0  0  0  0  0  0  0  0  0  0
    0.0000    0.0000    0.0000 C   0  0  0  0  0  0  0  0  0  0  0  0
    0.0173   -0.5763   -0.8166 H   0  0  0  0  0  0  0  0  0  0  0  0
    0.0173   -0.5760    0.8160 H   0  0  0  0  0  0  0  0  0  0  0  0
   -1.2428    0.8196   -0.0000 N   0  0  0  0  0  4  0  0  0  0  0  0
   -2.0378    0.2155   -0.0494 H   0  0  0  0  0  0  0  0  0  0  0  0
   -1.2833    1.3597    0.8399 H   0  0  0  0  0  0  0  0  0  0  0  0
   -1.2366    1.4306   -0.7908 H   0  0  0  0  0  0  0  0  0  0  0  0
   -5.9181    2.6485    0.9735 C   0  0  0  0  0  0  0  0  0  0  0  0
   -5.4702    3.3369    1.5876 H   0  0  0  0  0  0  0  0  0  0  0  0
   -6.5326    2.0978    1.5835 H   0  0  0  0  0  0  0  0  0  0  0  0
   -6.5394    3.1850    0.2564 H   0  0  0  0  0  0  0  0  0  0  0  0
   -4.6789    1.5884    0.1883 S   0  0  0  0  0  0  0  0  0  0  0  0
   -5.7185    0.4008   -0.6640 C   0  0  0  0  0  0  0  0  0  0  0  0
   -5.5735    0.4771   -1.6510 H   0  0  0  0  0  0  0  0  0  0  0  0
   -5.4845   -0.5245   -0.3645 H   0  0  0  0  0  0  0  0  0  0  0  0
   -6.6790    0.5858   -0.4529 H   0  0  0  0  0  0  0  0  0  0  0  0
  1  5  1  0
  5  8  1  0
  1  2  1  0
  1  3  1  0
  1  4  1  0
  5  6  1  0
  5  7  1  0
  8  9  1  0
  8 10  1  0
  8 11  1  0
 12 16  1  0
 16 17  1  0
 12 13  1  0
 12 14  1  0
 12 15  1  0
 17 18  1  0
 17 19  1  0
 17 20  1  0
M  CHG  1   8   1
M  END
>  <PDB_ID>  (1619) 
pdb5gva

>  <RESIDUE_NAME>  (1619) 
LYS   MET

>  <FRAG_NAME>  (1619) 
ETAM   MSM

>  <FRAG_ATOM_NUM>  (1619) 
fragi: 11  fragj: 9

>  <atom.prop.CHAIN_ID>  (1619) 
A A A A A A A A A A A Z Z Z Z Z Z Z Z Z

>  <atom.prop.IS_HEAVY_ATOM>  (1619) 
1 0 0 0 1 0 0 1 0 0 0 1 0 0 0 1 1 0 0 0

>  <DIFUSE_FUNC_ATOM>  (1619) 
n/a

>  <FINAL_SINGLE_POINT_ENERGY>  (1619) 
0

>  <NONCOV_INTER_ENERGY_QM>  (1619) 
0

>  <FF_Energy>  (1619) 
-5.06

>  <QM_Energy>  (1619) 
-11.19

>  <source>  (1619) 
ETAM_MSM

>  <Index>  (1619) 
10263

$$$$
ETAM-pdb6ggy-B-LYS-750:MSM-pdb6ggy-B-MET-680
     RDKit          3D

 20 18  0  0  0  0  0  0  0  0999 V2000
    1.2316    0.9262   -0.0000 C   0  0  0  0  0  0  0  0  0  0  0  0
    1.3781    1.2435    0.9289 H   0  0  0  0  0  0  0  0  0  0  0  0
    1.0419    1.6884   -0.6058 H   0  0  0  0  0  0  0  0  0  0  0  0
    2.1226    0.4023   -0.3460 H   0  0  0  0  0  0  0  0  0  0  0  0
    0.0000    0.0000    0.0000 C   0  0  0  0  0  0  0  0  0  0  0  0
    0.0233   -0.5572   -0.8163 H   0  0  0  0  0  0  0  0  0  0  0  0
    0.0232   -0.5573    0.8163 H   0  0  0  0  0  0  0  0  0  0  0  0
   -1.2316    0.8404   -0.0000 N   0  0  0  0  0  4  0  0  0  0  0  0
   -1.0338    1.7155    0.4390 H   0  0  0  0  0  0  0  0  0  0  0  0
   -1.5255    0.9956   -0.9421 H   0  0  0  0  0  0  0  0  0  0  0  0
   -1.9541    0.3676    0.5037 H   0  0  0  0  0  0  0  0  0  0  0  0
    0.5918    4.6702   -0.2747 C   0  0  0  0  0  0  0  0  0  0  0  0
    0.4742    4.3349   -1.2368 H   0  0  0  0  0  0  0  0  0  0  0  0
    1.1379    3.9464    0.2042 H   0  0  0  0  0  0  0  0  0  0  0  0
    1.1865    5.5832   -0.3032 H   0  0  0  0  0  0  0  0  0  0  0  0
   -1.0029    4.9066    0.5238 S   0  0  0  0  0  0  0  0  0  0  0  0
   -0.5407    5.1557    2.2434 C   0  0  0  0  0  0  0  0  0  0  0  0
   -0.8056    4.3536    2.7786 H   0  0  0  0  0  0  0  0  0  0  0  0
    0.4485    5.2869    2.3057 H   0  0  0  0  0  0  0  0  0  0  0  0
   -1.0081    5.9644    2.5997 H   0  0  0  0  0  0  0  0  0  0  0  0
  1  5  1  0
  5  8  1  0
  1  2  1  0
  1  3  1  0
  1  4  1  0
  5  6  1  0
  5  7  1  0
  8  9  1  0
  8 10  1  0
  8 11  1  0
 12 16  1  0
 16 17  1  0
 12 13  1  0
 12 14  1  0
 12 15  1  0
 17 18  1  0
 17 19  1  0
 17 20  1  0
M  CHG  1   8   1
M  END
>  <PDB_ID>  (1620) 
pdb6ggy

>  <RESIDUE_NAME>  (1620) 
LYS   MET

>  <FRAG_NAME>  (1620) 
ETAM   MSM

>  <FRAG_ATOM_NUM>  (1620) 
fragi: 11  fragj: 9

>  <atom.prop.CHAIN_ID>  (1620) 
A A A A A A A A A A A Z Z Z Z Z Z Z Z Z

>  <atom.prop.IS_HEAVY_ATOM>  (1620) 
1 0 0 0 1 0 0 1 0 0 0 1 0 0 0 1 1 0 0 0

>  <DIFUSE_FUNC_ATOM>  (1620) 
n/a

>  <FINAL_SINGLE_POINT_ENERGY>  (1620) 
0

>  <NONCOV_INTER_ENERGY_QM>  (1620) 
0

>  <FF_Energy>  (1620) 
-3.26

>  <QM_Energy>  (1620) 
-8.49

>  <source>  (1620) 
ETAM_MSM

>  <Index>  (1620) 
10276

$$$$
ETAM-pdb6h7h-A-LYS-155:MSM-pdb6h7h-A-MET-160
     RDKit          3D

 20 18  0  0  0  0  0  0  0  0999 V2000
    1.2566    0.8665   -0.0000 C   0  0  0  0  0  0  0  0  0  0  0  0
    1.0298    1.7513    0.3988 H   0  0  0  0  0  0  0  0  0  0  0  0
    1.5597    0.9821   -0.9414 H   0  0  0  0  0  0  0  0  0  0  0  0
    2.0642    0.4168    0.5776 H   0  0  0  0  0  0  0  0  0  0  0  0
    0.0000    0.0000    0.0000 C   0  0  0  0  0  0  0  0  0  0  0  0
    0.0130   -0.5879   -0.8164 H   0  0  0  0  0  0  0  0  0  0  0  0
    0.0129   -0.5882    0.8166 H   0  0  0  0  0  0  0  0  0  0  0  0
   -1.2566    0.8066    0.0000 N   0  0  0  0  0  4  0  0  0  0  0  0
   -2.0412    0.1933    0.0790 H   0  0  0  0  0  0  0  0  0  0  0  0
   -1.2426    1.4368    0.7746 H   0  0  0  0  0  0  0  0  0  0  0  0
   -1.3165    1.3225   -0.8535 H   0  0  0  0  0  0  0  0  0  0  0  0
   -1.1715    4.9104    0.9589 C   0  0  0  0  0  0  0  0  0  0  0  0
   -1.6316    5.6624    1.4397 H   0  0  0  0  0  0  0  0  0  0  0  0
   -1.4951    4.8869    0.0095 H   0  0  0  0  0  0  0  0  0  0  0  0
   -0.0955    5.0850    0.9671 H   0  0  0  0  0  0  0  0  0  0  0  0
   -1.4827    3.3382    1.7819 S   0  0  0  0  0  0  0  0  0  0  0  0
   -3.2338    3.1356    1.5723 C   0  0  0  0  0  0  0  0  0  0  0  0
   -3.4301    2.2362    1.1715 H   0  0  0  0  0  0  0  0  0  0  0  0
   -3.6966    3.2042    2.4601 H   0  0  0  0  0  0  0  0  0  0  0  0
   -3.5922    3.8482    0.9631 H   0  0  0  0  0  0  0  0  0  0  0  0
  1  5  1  0
  5  8  1  0
  1  2  1  0
  1  3  1  0
  1  4  1  0
  5  6  1  0
  5  7  1  0
  8  9  1  0
  8 10  1  0
  8 11  1  0
 12 16  1  0
 16 17  1  0
 12 13  1  0
 12 14  1  0
 12 15  1  0
 17 18  1  0
 17 19  1  0
 17 20  1  0
M  CHG  1   8   1
M  END
>  <PDB_ID>  (1621) 
pdb6h7h

>  <RESIDUE_NAME>  (1621) 
LYS   MET

>  <FRAG_NAME>  (1621) 
ETAM   MSM

>  <FRAG_ATOM_NUM>  (1621) 
fragi: 11  fragj: 9

>  <atom.prop.CHAIN_ID>  (1621) 
A A A A A A A A A A A Z Z Z Z Z Z Z Z Z

>  <atom.prop.IS_HEAVY_ATOM>  (1621) 
1 0 0 0 1 0 0 1 0 0 0 1 0 0 0 1 1 0 0 0

>  <DIFUSE_FUNC_ATOM>  (1621) 
n/a

>  <FINAL_SINGLE_POINT_ENERGY>  (1621) 
0

>  <NONCOV_INTER_ENERGY_QM>  (1621) 
0

>  <FF_Energy>  (1621) 
-3.93

>  <QM_Energy>  (1621) 
-14.08

>  <source>  (1621) 
ETAM_MSM

>  <Index>  (1621) 
10281

$$$$
ETAM-pdb6h7f-B-LYS-75:MSM-pdb6h7f-B-MET-696
     RDKit          3D

 20 18  0  0  0  0  0  0  0  0999 V2000
    1.2368    0.8697    0.0000 C   0  0  0  0  0  0  0  0  0  0  0  0
    2.0198    0.3122    0.2769 H   0  0  0  0  0  0  0  0  0  0  0  0
    1.1060    1.6102    0.6604 H   0  0  0  0  0  0  0  0  0  0  0  0
    1.4424    1.3025   -0.9791 H   0  0  0  0  0  0  0  0  0  0  0  0
    0.0000    0.0000    0.0000 C   0  0  0  0  0  0  0  0  0  0  0  0
    0.0109   -0.5840   -0.8163 H   0  0  0  0  0  0  0  0  0  0  0  0
    0.0105   -0.5843    0.8166 H   0  0  0  0  0  0  0  0  0  0  0  0
   -1.2368    0.8151   -0.0000 N   0  0  0  0  0  4  0  0  0  0  0  0
   -1.1052    1.6245   -0.5733 H   0  0  0  0  0  0  0  0  0  0  0  0
   -1.9954    0.2721   -0.3617 H   0  0  0  0  0  0  0  0  0  0  0  0
   -1.4499    1.1011    0.9353 H   0  0  0  0  0  0  0  0  0  0  0  0
   -3.9724   -0.4467   -3.3212 C   0  0  0  0  0  0  0  0  0  0  0  0
   -3.4574   -1.3057   -3.1392 H   0  0  0  0  0  0  0  0  0  0  0  0
   -4.3206   -0.5119   -4.2754 H   0  0  0  0  0  0  0  0  0  0  0  0
   -4.8226   -0.4000   -2.6408 H   0  0  0  0  0  0  0  0  0  0  0  0
   -2.9005    0.9960   -3.1291 S   0  0  0  0  0  0  0  0  0  0  0  0
   -1.6823    0.7056   -4.4142 C   0  0  0  0  0  0  0  0  0  0  0  0
   -1.1982    1.5577   -4.6146 H   0  0  0  0  0  0  0  0  0  0  0  0
   -1.0275    0.0159   -4.1040 H   0  0  0  0  0  0  0  0  0  0  0  0
   -2.1409    0.3798   -5.2417 H   0  0  0  0  0  0  0  0  0  0  0  0
  1  5  1  0
  5  8  1  0
  1  2  1  0
  1  3  1  0
  1  4  1  0
  5  6  1  0
  5  7  1  0
  8  9  1  0
  8 10  1  0
  8 11  1  0
 12 16  1  0
 16 17  1  0
 12 13  1  0
 12 14  1  0
 12 15  1  0
 17 18  1  0
 17 19  1  0
 17 20  1  0
M  CHG  1   8   1
M  END
>  <PDB_ID>  (1622) 
pdb6h7f

>  <RESIDUE_NAME>  (1622) 
LYS   MET

>  <FRAG_NAME>  (1622) 
ETAM   MSM

>  <FRAG_ATOM_NUM>  (1622) 
fragi: 11  fragj: 9

>  <atom.prop.CHAIN_ID>  (1622) 
A A A A A A A A A A A Z Z Z Z Z Z Z Z Z

>  <atom.prop.IS_HEAVY_ATOM>  (1622) 
1 0 0 0 1 0 0 1 0 0 0 1 0 0 0 1 1 0 0 0

>  <DIFUSE_FUNC_ATOM>  (1622) 
n/a

>  <FINAL_SINGLE_POINT_ENERGY>  (1622) 
0

>  <NONCOV_INTER_ENERGY_QM>  (1622) 
0

>  <FF_Energy>  (1622) 
-4.86

>  <QM_Energy>  (1622) 
-12.46

>  <source>  (1622) 
ETAM_MSM

>  <Index>  (1622) 
10284

$$$$
ETAM-pdb5h2q-B-LYS-820:MSM-pdb5h2q-B-MET-785
     RDKit          3D

 20 18  0  0  0  0  0  0  0  0999 V2000
    1.2552    0.8524   -0.0000 C   0  0  0  0  0  0  0  0  0  0  0  0
    1.2925    1.3724   -0.8537 H   0  0  0  0  0  0  0  0  0  0  0  0
    2.0535    0.2519    0.0598 H   0  0  0  0  0  0  0  0  0  0  0  0
    1.2958    1.5580    0.8299 H   0  0  0  0  0  0  0  0  0  0  0  0
    0.0000    0.0000    0.0000 C   0  0  0  0  0  0  0  0  0  0  0  0
    0.0058   -0.5920   -0.8161 H   0  0  0  0  0  0  0  0  0  0  0  0
    0.0059   -0.5921    0.8157 H   0  0  0  0  0  0  0  0  0  0  0  0
   -1.2552    0.8091    0.0000 N   0  0  0  0  0  4  0  0  0  0  0  0
   -1.2534    1.4189    0.7904 H   0  0  0  0  0  0  0  0  0  0  0  0
   -1.2993    1.3474   -0.8399 H   0  0  0  0  0  0  0  0  0  0  0  0
   -2.0416    0.1959    0.0492 H   0  0  0  0  0  0  0  0  0  0  0  0
   -5.5022    3.7187   -0.1486 C   0  0  0  0  0  0  0  0  0  0  0  0
   -4.9623    4.5754    0.0006 H   0  0  0  0  0  0  0  0  0  0  0  0
   -6.3257    3.8004    0.4548 H   0  0  0  0  0  0  0  0  0  0  0  0
   -5.8247    3.6780   -1.1890 H   0  0  0  0  0  0  0  0  0  0  0  0
   -4.5149    2.2641    0.3330 S   0  0  0  0  0  0  0  0  0  0  0  0
   -5.7315    1.0057    0.3085 C   0  0  0  0  0  0  0  0  0  0  0  0
   -6.3755    1.1173    1.0764 H   0  0  0  0  0  0  0  0  0  0  0  0
   -6.2579    1.0358   -0.5514 H   0  0  0  0  0  0  0  0  0  0  0  0
   -5.3042    0.0962    0.3846 H   0  0  0  0  0  0  0  0  0  0  0  0
  1  5  1  0
  5  8  1  0
  1  2  1  0
  1  3  1  0
  1  4  1  0
  5  6  1  0
  5  7  1  0
  8  9  1  0
  8 10  1  0
  8 11  1  0
 12 16  1  0
 16 17  1  0
 12 13  1  0
 12 14  1  0
 12 15  1  0
 17 18  1  0
 17 19  1  0
 17 20  1  0
M  CHG  1   8   1
M  END
>  <PDB_ID>  (1623) 
pdb5h2q

>  <RESIDUE_NAME>  (1623) 
LYS   MET

>  <FRAG_NAME>  (1623) 
ETAM   MSM

>  <FRAG_ATOM_NUM>  (1623) 
fragi: 11  fragj: 9

>  <atom.prop.CHAIN_ID>  (1623) 
A A A A A A A A A A A Z Z Z Z Z Z Z Z Z

>  <atom.prop.IS_HEAVY_ATOM>  (1623) 
1 0 0 0 1 0 0 1 0 0 0 1 0 0 0 1 1 0 0 0

>  <DIFUSE_FUNC_ATOM>  (1623) 
n/a

>  <FINAL_SINGLE_POINT_ENERGY>  (1623) 
0

>  <NONCOV_INTER_ENERGY_QM>  (1623) 
0

>  <FF_Energy>  (1623) 
-4.8

>  <QM_Energy>  (1623) 
-10.78

>  <source>  (1623) 
ETAM_MSM

>  <Index>  (1623) 
10302

$$$$
ETAM-pdb5h3v-A-LYS-17:MSM-pdb5h3v-A-MET-20
     RDKit          3D

 20 18  0  0  0  0  0  0  0  0999 V2000
    1.2414    0.8772    0.0000 C   0  0  0  0  0  0  0  0  0  0  0  0
    1.6794    0.8081    0.8886 H   0  0  0  0  0  0  0  0  0  0  0  0
    0.9686    1.8135   -0.1848 H   0  0  0  0  0  0  0  0  0  0  0  0
    1.9477    0.5573   -0.7661 H   0  0  0  0  0  0  0  0  0  0  0  0
    0.0000    0.0000    0.0000 C   0  0  0  0  0  0  0  0  0  0  0  0
    0.0077   -0.5771   -0.8167 H   0  0  0  0  0  0  0  0  0  0  0  0
    0.0069   -0.5762    0.8162 H   0  0  0  0  0  0  0  0  0  0  0  0
   -1.2414    0.8312   -0.0000 N   0  0  0  0  0  4  0  0  0  0  0  0
   -0.9900    1.7970    0.0405 H   0  0  0  0  0  0  0  0  0  0  0  0
   -1.7568    0.6521   -0.8365 H   0  0  0  0  0  0  0  0  0  0  0  0
   -1.7967    0.5928    0.7956 H   0  0  0  0  0  0  0  0  0  0  0  0
   -0.4332    1.6903   -4.8279 C   0  0  0  0  0  0  0  0  0  0  0  0
   -0.8127    1.0825   -5.5341 H   0  0  0  0  0  0  0  0  0  0  0  0
    0.5529    1.7981   -4.9974 H   0  0  0  0  0  0  0  0  0  0  0  0
   -0.9157    2.6649   -4.9007 H   0  0  0  0  0  0  0  0  0  0  0  0
   -0.7249    1.0041   -3.1697 S   0  0  0  0  0  0  0  0  0  0  0  0
   -2.4796    0.6470   -3.2408 C   0  0  0  0  0  0  0  0  0  0  0  0
   -2.7201    0.0008   -2.5150 H   0  0  0  0  0  0  0  0  0  0  0  0
   -2.9993    1.4929   -3.1167 H   0  0  0  0  0  0  0  0  0  0  0  0
   -2.7052    0.2469   -4.1305 H   0  0  0  0  0  0  0  0  0  0  0  0
  1  5  1  0
  5  8  1  0
  1  2  1  0
  1  3  1  0
  1  4  1  0
  5  6  1  0
  5  7  1  0
  8  9  1  0
  8 10  1  0
  8 11  1  0
 12 16  1  0
 16 17  1  0
 12 13  1  0
 12 14  1  0
 12 15  1  0
 17 18  1  0
 17 19  1  0
 17 20  1  0
M  CHG  1   8   1
M  END
>  <PDB_ID>  (1624) 
pdb5h3v

>  <RESIDUE_NAME>  (1624) 
LYS   MET

>  <FRAG_NAME>  (1624) 
ETAM   MSM

>  <FRAG_ATOM_NUM>  (1624) 
fragi: 11  fragj: 9

>  <atom.prop.CHAIN_ID>  (1624) 
A A A A A A A A A A A Z Z Z Z Z Z Z Z Z

>  <atom.prop.IS_HEAVY_ATOM>  (1624) 
1 0 0 0 1 0 0 1 0 0 0 1 0 0 0 1 1 0 0 0

>  <DIFUSE_FUNC_ATOM>  (1624) 
n/a

>  <FINAL_SINGLE_POINT_ENERGY>  (1624) 
0

>  <NONCOV_INTER_ENERGY_QM>  (1624) 
0

>  <FF_Energy>  (1624) 
-4.11

>  <QM_Energy>  (1624) 
-10.91

>  <source>  (1624) 
ETAM_MSM

>  <Index>  (1624) 
10308

$$$$
ETAM-pdb6hcs-F-LYS-300:MSM-pdb6hcs-E-MET-145
     RDKit          3D

 20 18  0  0  0  0  0  0  0  0999 V2000
    1.2581    0.8619    0.0000 C   0  0  0  0  0  0  0  0  0  0  0  0
    0.9902    1.8027   -0.1701 H   0  0  0  0  0  0  0  0  0  0  0  0
    1.8587    0.5331   -0.7180 H   0  0  0  0  0  0  0  0  0  0  0  0
    1.7667    0.7958    0.9619 H   0  0  0  0  0  0  0  0  0  0  0  0
    0.0000    0.0000    0.0000 C   0  0  0  0  0  0  0  0  0  0  0  0
    0.0159   -0.5939   -0.8166 H   0  0  0  0  0  0  0  0  0  0  0  0
    0.0155   -0.5943    0.8163 H   0  0  0  0  0  0  0  0  0  0  0  0
   -1.2581    0.7939   -0.0000 N   0  0  0  0  0  4  0  0  0  0  0  0
   -1.4010    1.1896    0.9074 H   0  0  0  0  0  0  0  0  0  0  0  0
   -1.1887    1.5261   -0.6772 H   0  0  0  0  0  0  0  0  0  0  0  0
   -2.0266    0.1971   -0.2301 H   0  0  0  0  0  0  0  0  0  0  0  0
   -2.4596   -0.1317   -2.6320 C   0  0  0  0  0  0  0  0  0  0  0  0
   -1.7462    0.4644   -2.1896 H   0  0  0  0  0  0  0  0  0  0  0  0
   -2.6931    0.3467   -3.5140 H   0  0  0  0  0  0  0  0  0  0  0  0
   -2.0055   -1.0936   -2.8701 H   0  0  0  0  0  0  0  0  0  0  0  0
   -3.9145   -0.2700   -1.5794 S   0  0  0  0  0  0  0  0  0  0  0  0
   -3.3362   -1.4224   -0.3362 C   0  0  0  0  0  0  0  0  0  0  0  0
   -3.6438   -2.3472   -0.5663 H   0  0  0  0  0  0  0  0  0  0  0  0
   -2.3361   -1.4050   -0.3013 H   0  0  0  0  0  0  0  0  0  0  0  0
   -3.7036   -1.1636    0.5583 H   0  0  0  0  0  0  0  0  0  0  0  0
  1  5  1  0
  5  8  1  0
  1  2  1  0
  1  3  1  0
  1  4  1  0
  5  6  1  0
  5  7  1  0
  8  9  1  0
  8 10  1  0
  8 11  1  0
 12 16  1  0
 16 17  1  0
 12 13  1  0
 12 14  1  0
 12 15  1  0
 17 18  1  0
 17 19  1  0
 17 20  1  0
M  CHG  1   8   1
M  END
>  <PDB_ID>  (1625) 
pdb6hcs

>  <RESIDUE_NAME>  (1625) 
LYS   MET

>  <FRAG_NAME>  (1625) 
ETAM   MSM

>  <FRAG_ATOM_NUM>  (1625) 
fragi: 11  fragj: 9

>  <atom.prop.CHAIN_ID>  (1625) 
A A A A A A A A A A A Z Z Z Z Z Z Z Z Z

>  <atom.prop.IS_HEAVY_ATOM>  (1625) 
1 0 0 0 1 0 0 1 0 0 0 1 0 0 0 1 1 0 0 0

>  <DIFUSE_FUNC_ATOM>  (1625) 
n/a

>  <FINAL_SINGLE_POINT_ENERGY>  (1625) 
0

>  <NONCOV_INTER_ENERGY_QM>  (1625) 
0

>  <FF_Energy>  (1625) 
5.49

>  <QM_Energy>  (1625) 
-1.96

>  <source>  (1625) 
ETAM_MSM

>  <Index>  (1625) 
10322

$$$$
ETAM-pdb5gwe-C-LYS-160:MSM-pdb5gwe-C-MET-407
     RDKit          3D

 20 18  0  0  0  0  0  0  0  0999 V2000
    1.2319    0.8737    0.0000 C   0  0  0  0  0  0  0  0  0  0  0  0
    1.2151    1.4516    0.8173 H   0  0  0  0  0  0  0  0  0  0  0  0
    1.2151    1.4521   -0.8160 H   0  0  0  0  0  0  0  0  0  0  0  0
    2.1559    0.2957    0.0012 H   0  0  0  0  0  0  0  0  0  0  0  0
    0.0000    0.0000    0.0000 C   0  0  0  0  0  0  0  0  0  0  0  0
    0.0068   -0.5791   -0.8158 H   0  0  0  0  0  0  0  0  0  0  0  0
    0.0065   -0.5787    0.8170 H   0  0  0  0  0  0  0  0  0  0  0  0
   -1.2319    0.8288    0.0000 N   0  0  0  0  0  4  0  0  0  0  0  0
   -1.0351    1.7179   -0.4122 H   0  0  0  0  0  0  0  0  0  0  0  0
   -1.9449    0.3672   -0.5274 H   0  0  0  0  0  0  0  0  0  0  0  0
   -1.5454    0.9599    0.9412 H   0  0  0  0  0  0  0  0  0  0  0  0
   -2.4086   -4.7703   -0.8309 C   0  0  0  0  0  0  0  0  0  0  0  0
   -2.7550   -4.8149   -1.7960 H   0  0  0  0  0  0  0  0  0  0  0  0
   -2.8869   -5.5297   -0.3346 H   0  0  0  0  0  0  0  0  0  0  0  0
   -1.3363   -4.9665   -0.8304 H   0  0  0  0  0  0  0  0  0  0  0  0
   -2.8464   -3.1605   -0.0828 S   0  0  0  0  0  0  0  0  0  0  0  0
   -1.9481   -2.0370   -1.1624 C   0  0  0  0  0  0  0  0  0  0  0  0
   -1.2752   -1.5284   -0.6255 H   0  0  0  0  0  0  0  0  0  0  0  0
   -1.4810   -2.5624   -1.8736 H   0  0  0  0  0  0  0  0  0  0  0  0
   -2.5900   -1.3984   -1.5851 H   0  0  0  0  0  0  0  0  0  0  0  0
  1  5  1  0
  5  8  1  0
  1  2  1  0
  1  3  1  0
  1  4  1  0
  5  6  1  0
  5  7  1  0
  8  9  1  0
  8 10  1  0
  8 11  1  0
 12 16  1  0
 16 17  1  0
 12 13  1  0
 12 14  1  0
 12 15  1  0
 17 18  1  0
 17 19  1  0
 17 20  1  0
M  CHG  1   8   1
M  END
>  <PDB_ID>  (1626) 
pdb5gwe

>  <RESIDUE_NAME>  (1626) 
LYS   MET

>  <FRAG_NAME>  (1626) 
ETAM   MSM

>  <FRAG_ATOM_NUM>  (1626) 
fragi: 11  fragj: 9

>  <atom.prop.CHAIN_ID>  (1626) 
A A A A A A A A A A A Z Z Z Z Z Z Z Z Z

>  <atom.prop.IS_HEAVY_ATOM>  (1626) 
1 0 0 0 1 0 0 1 0 0 0 1 0 0 0 1 1 0 0 0

>  <DIFUSE_FUNC_ATOM>  (1626) 
n/a

>  <FINAL_SINGLE_POINT_ENERGY>  (1626) 
0

>  <NONCOV_INTER_ENERGY_QM>  (1626) 
0

>  <FF_Energy>  (1626) 
25.94

>  <QM_Energy>  (1626) 
4.33

>  <source>  (1626) 
ETAM_MSM

>  <Index>  (1626) 
10325

$$$$
ETAM-pdb5h61-A-LYS-213:MSM-pdb5h61-A-MET-142
     RDKit          3D

 20 18  0  0  0  0  0  0  0  0999 V2000
    1.2564    0.9127    0.0000 C   0  0  0  0  0  0  0  0  0  0  0  0
    2.0461    0.3366    0.1746 H   0  0  0  0  0  0  0  0  0  0  0  0
    1.1417    1.5801    0.7263 H   0  0  0  0  0  0  0  0  0  0  0  0
    1.3780    1.4240   -0.9549 H   0  0  0  0  0  0  0  0  0  0  0  0
    0.0000    0.0000    0.0000 C   0  0  0  0  0  0  0  0  0  0  0  0
    0.0263   -0.5691   -0.8166 H   0  0  0  0  0  0  0  0  0  0  0  0
    0.0260   -0.5694    0.8161 H   0  0  0  0  0  0  0  0  0  0  0  0
   -1.2564    0.8172   -0.0000 N   0  0  0  0  0  4  0  0  0  0  0  0
   -1.7297    0.6880   -0.8692 H   0  0  0  0  0  0  0  0  0  0  0  0
   -1.8405    0.5176    0.7518 H   0  0  0  0  0  0  0  0  0  0  0  0
   -1.0198    1.7797    0.1171 H   0  0  0  0  0  0  0  0  0  0  0  0
   -4.1806   -0.4361   -4.2721 C   0  0  0  0  0  0  0  0  0  0  0  0
   -3.5231   -0.8212   -4.9656 H   0  0  0  0  0  0  0  0  0  0  0  0
   -4.1940    0.5777   -4.4561 H   0  0  0  0  0  0  0  0  0  0  0  0
   -5.1690   -0.8177   -4.5285 H   0  0  0  0  0  0  0  0  0  0  0  0
   -3.6663   -0.7983   -2.5992 S   0  0  0  0  0  0  0  0  0  0  0  0
   -5.0170   -0.1026   -1.6667 C   0  0  0  0  0  0  0  0  0  0  0  0
   -5.8591   -0.6114   -1.8568 H   0  0  0  0  0  0  0  0  0  0  0  0
   -4.8154   -0.1548   -0.6863 H   0  0  0  0  0  0  0  0  0  0  0  0
   -5.1491    0.8571   -1.9236 H   0  0  0  0  0  0  0  0  0  0  0  0
  1  5  1  0
  5  8  1  0
  1  2  1  0
  1  3  1  0
  1  4  1  0
  5  6  1  0
  5  7  1  0
  8  9  1  0
  8 10  1  0
  8 11  1  0
 12 16  1  0
 16 17  1  0
 12 13  1  0
 12 14  1  0
 12 15  1  0
 17 18  1  0
 17 19  1  0
 17 20  1  0
M  CHG  1   8   1
M  END
>  <PDB_ID>  (1627) 
pdb5h61

>  <RESIDUE_NAME>  (1627) 
LYS   MET

>  <FRAG_NAME>  (1627) 
ETAM   MSM

>  <FRAG_ATOM_NUM>  (1627) 
fragi: 11  fragj: 9

>  <atom.prop.CHAIN_ID>  (1627) 
A A A A A A A A A A A Z Z Z Z Z Z Z Z Z

>  <atom.prop.IS_HEAVY_ATOM>  (1627) 
1 0 0 0 1 0 0 1 0 0 0 1 0 0 0 1 1 0 0 0

>  <DIFUSE_FUNC_ATOM>  (1627) 
n/a

>  <FINAL_SINGLE_POINT_ENERGY>  (1627) 
0

>  <NONCOV_INTER_ENERGY_QM>  (1627) 
0

>  <FF_Energy>  (1627) 
-4.1

>  <QM_Energy>  (1627) 
-10.51

>  <source>  (1627) 
ETAM_MSM

>  <Index>  (1627) 
10335

$$$$
ETAM-pdb5h5y-A-LYS-192:MSM-pdb5h5y-A-MET-123
     RDKit          3D

 20 18  0  0  0  0  0  0  0  0999 V2000
    1.2611    0.8758    0.0000 C   0  0  0  0  0  0  0  0  0  0  0  0
    1.0018    1.7714   -0.2714 H   0  0  0  0  0  0  0  0  0  0  0  0
    1.9164    0.4545   -0.5796 H   0  0  0  0  0  0  0  0  0  0  0  0
    1.6007    0.8706    1.0358 H   0  0  0  0  0  0  0  0  0  0  0  0
    0.0000    0.0000    0.0000 C   0  0  0  0  0  0  0  0  0  0  0  0
    0.0396   -0.6044   -0.8166 H   0  0  0  0  0  0  0  0  0  0  0  0
    0.0394   -0.6042    0.8163 H   0  0  0  0  0  0  0  0  0  0  0  0
   -1.2611    0.7482    0.0000 N   0  0  0  0  0  4  0  0  0  0  0  0
   -1.1428    1.6185   -0.4840 H   0  0  0  0  0  0  0  0  0  0  0  0
   -1.9765    0.2146   -0.4589 H   0  0  0  0  0  0  0  0  0  0  0  0
   -1.5483    0.9359    0.9425 H   0  0  0  0  0  0  0  0  0  0  0  0
   -2.4931    5.3269   -1.6228 C   0  0  0  0  0  0  0  0  0  0  0  0
   -1.6772    5.8770   -1.9430 H   0  0  0  0  0  0  0  0  0  0  0  0
   -2.5379    5.5093   -0.6053 H   0  0  0  0  0  0  0  0  0  0  0  0
   -3.3798    5.7754   -2.0708 H   0  0  0  0  0  0  0  0  0  0  0  0
   -2.3007    3.6034   -1.9717 S   0  0  0  0  0  0  0  0  0  0  0  0
   -3.7442    2.8789   -1.1823 C   0  0  0  0  0  0  0  0  0  0  0  0
   -4.0022    2.0414   -1.6646 H   0  0  0  0  0  0  0  0  0  0  0  0
   -3.5288    2.6628   -0.2298 H   0  0  0  0  0  0  0  0  0  0  0  0
   -4.5030    3.5301   -1.2148 H   0  0  0  0  0  0  0  0  0  0  0  0
  1  5  1  0
  5  8  1  0
  1  2  1  0
  1  3  1  0
  1  4  1  0
  5  6  1  0
  5  7  1  0
  8  9  1  0
  8 10  1  0
  8 11  1  0
 12 16  1  0
 16 17  1  0
 12 13  1  0
 12 14  1  0
 12 15  1  0
 17 18  1  0
 17 19  1  0
 17 20  1  0
M  CHG  1   8   1
M  END
>  <PDB_ID>  (1628) 
pdb5h5y

>  <RESIDUE_NAME>  (1628) 
LYS   MET

>  <FRAG_NAME>  (1628) 
ETAM   MSM

>  <FRAG_ATOM_NUM>  (1628) 
fragi: 11  fragj: 9

>  <atom.prop.CHAIN_ID>  (1628) 
A A A A A A A A A A A Z Z Z Z Z Z Z Z Z

>  <atom.prop.IS_HEAVY_ATOM>  (1628) 
1 0 0 0 1 0 0 1 0 0 0 1 0 0 0 1 1 0 0 0

>  <DIFUSE_FUNC_ATOM>  (1628) 
n/a

>  <FINAL_SINGLE_POINT_ENERGY>  (1628) 
0

>  <NONCOV_INTER_ENERGY_QM>  (1628) 
0

>  <FF_Energy>  (1628) 
-3.81

>  <QM_Energy>  (1628) 
-10.72

>  <source>  (1628) 
ETAM_MSM

>  <Index>  (1628) 
10339

$$$$
ETAM-pdb5h68-B-LYS-1081:MSM-pdb5h68-A-MET-1165
     RDKit          3D

 20 18  0  0  0  0  0  0  0  0999 V2000
    1.2480    0.8693   -0.0000 C   0  0  0  0  0  0  0  0  0  0  0  0
    1.2662    1.3941    0.8397 H   0  0  0  0  0  0  0  0  0  0  0  0
    1.2174    1.4645   -0.7909 H   0  0  0  0  0  0  0  0  0  0  0  0
    2.1417    0.2476   -0.0533 H   0  0  0  0  0  0  0  0  0  0  0  0
    0.0000    0.0000    0.0000 C   0  0  0  0  0  0  0  0  0  0  0  0
    0.0034   -0.5788   -0.8162 H   0  0  0  0  0  0  0  0  0  0  0  0
    0.0031   -0.5786    0.8170 H   0  0  0  0  0  0  0  0  0  0  0  0
   -1.2480    0.8329    0.0000 N   0  0  0  0  0  4  0  0  0  0  0  0
   -1.8714    0.4856    0.6972 H   0  0  0  0  0  0  0  0  0  0  0  0
   -1.0068    1.7796    0.2016 H   0  0  0  0  0  0  0  0  0  0  0  0
   -1.6774    0.7751   -0.8987 H   0  0  0  0  0  0  0  0  0  0  0  0
   -3.0217   -3.3801    3.0315 C   0  0  0  0  0  0  0  0  0  0  0  0
   -2.7655   -4.3645    2.9294 H   0  0  0  0  0  0  0  0  0  0  0  0
   -3.9909   -3.3060    2.7164 H   0  0  0  0  0  0  0  0  0  0  0  0
   -2.9729   -3.1117    4.0868 H   0  0  0  0  0  0  0  0  0  0  0  0
   -1.9422   -2.3362    2.0099 S   0  0  0  0  0  0  0  0  0  0  0  0
   -2.1489   -3.1929    0.4522 C   0  0  0  0  0  0  0  0  0  0  0  0
   -3.0911   -3.0829    0.1301 H   0  0  0  0  0  0  0  0  0  0  0  0
   -1.5204   -2.8113   -0.2275 H   0  0  0  0  0  0  0  0  0  0  0  0
   -1.9527   -4.1670    0.5752 H   0  0  0  0  0  0  0  0  0  0  0  0
  1  5  1  0
  5  8  1  0
  1  2  1  0
  1  3  1  0
  1  4  1  0
  5  6  1  0
  5  7  1  0
  8  9  1  0
  8 10  1  0
  8 11  1  0
 12 16  1  0
 16 17  1  0
 12 13  1  0
 12 14  1  0
 12 15  1  0
 17 18  1  0
 17 19  1  0
 17 20  1  0
M  CHG  1   8   1
M  END
>  <PDB_ID>  (1629) 
pdb5h68

>  <RESIDUE_NAME>  (1629) 
LYS   MET

>  <FRAG_NAME>  (1629) 
ETAM   MSM

>  <FRAG_ATOM_NUM>  (1629) 
fragi: 11  fragj: 9

>  <atom.prop.CHAIN_ID>  (1629) 
A A A A A A A A A A A Z Z Z Z Z Z Z Z Z

>  <atom.prop.IS_HEAVY_ATOM>  (1629) 
1 0 0 0 1 0 0 1 0 0 0 1 0 0 0 1 1 0 0 0

>  <DIFUSE_FUNC_ATOM>  (1629) 
n/a

>  <FINAL_SINGLE_POINT_ENERGY>  (1629) 
0

>  <NONCOV_INTER_ENERGY_QM>  (1629) 
0

>  <FF_Energy>  (1629) 
-4.46

>  <QM_Energy>  (1629) 
-10.36

>  <source>  (1629) 
ETAM_MSM

>  <Index>  (1629) 
10340

$$$$
ETAM-pdb5h68-A-LYS-1081:MSM-pdb5h68-B-MET-1165
     RDKit          3D

 20 18  0  0  0  0  0  0  0  0999 V2000
    1.2607    0.8540    0.0000 C   0  0  0  0  0  0  0  0  0  0  0  0
    1.3419    1.3027    0.8735 H   0  0  0  0  0  0  0  0  0  0  0  0
    1.2073    1.5004   -0.7421 H   0  0  0  0  0  0  0  0  0  0  0  0
    2.1327    0.2174   -0.1498 H   0  0  0  0  0  0  0  0  0  0  0  0
    0.0000    0.0000    0.0000 C   0  0  0  0  0  0  0  0  0  0  0  0
    0.0191   -0.6016   -0.8160 H   0  0  0  0  0  0  0  0  0  0  0  0
    0.0190   -0.6017    0.8164 H   0  0  0  0  0  0  0  0  0  0  0  0
   -1.2607    0.7781   -0.0000 N   0  0  0  0  0  4  0  0  0  0  0  0
   -1.1054    1.6672   -0.4326 H   0  0  0  0  0  0  0  0  0  0  0  0
   -1.9623    0.2782   -0.5090 H   0  0  0  0  0  0  0  0  0  0  0  0
   -1.5692    0.9167    0.9423 H   0  0  0  0  0  0  0  0  0  0  0  0
   -1.6521   -3.1377   -3.7104 C   0  0  0  0  0  0  0  0  0  0  0  0
   -0.9031   -3.7871   -3.4992 H   0  0  0  0  0  0  0  0  0  0  0  0
   -1.6876   -3.0382   -4.7184 H   0  0  0  0  0  0  0  0  0  0  0  0
   -2.5947   -3.5607   -3.3632 H   0  0  0  0  0  0  0  0  0  0  0  0
   -1.3741   -1.5569   -2.9184 S   0  0  0  0  0  0  0  0  0  0  0  0
   -2.2061   -0.4271   -4.0266 C   0  0  0  0  0  0  0  0  0  0  0  0
   -3.1960   -0.5710   -3.9734 H   0  0  0  0  0  0  0  0  0  0  0  0
   -1.9945    0.5166   -3.7670 H   0  0  0  0  0  0  0  0  0  0  0  0
   -1.8983   -0.5876   -4.9656 H   0  0  0  0  0  0  0  0  0  0  0  0
  1  5  1  0
  5  8  1  0
  1  2  1  0
  1  3  1  0
  1  4  1  0
  5  6  1  0
  5  7  1  0
  8  9  1  0
  8 10  1  0
  8 11  1  0
 12 16  1  0
 16 17  1  0
 12 13  1  0
 12 14  1  0
 12 15  1  0
 17 18  1  0
 17 19  1  0
 17 20  1  0
M  CHG  1   8   1
M  END
>  <PDB_ID>  (1630) 
pdb5h68

>  <RESIDUE_NAME>  (1630) 
LYS   MET

>  <FRAG_NAME>  (1630) 
ETAM   MSM

>  <FRAG_ATOM_NUM>  (1630) 
fragi: 11  fragj: 9

>  <atom.prop.CHAIN_ID>  (1630) 
A A A A A A A A A A A Z Z Z Z Z Z Z Z Z

>  <atom.prop.IS_HEAVY_ATOM>  (1630) 
1 0 0 0 1 0 0 1 0 0 0 1 0 0 0 1 1 0 0 0

>  <DIFUSE_FUNC_ATOM>  (1630) 
n/a

>  <FINAL_SINGLE_POINT_ENERGY>  (1630) 
0

>  <NONCOV_INTER_ENERGY_QM>  (1630) 
0

>  <FF_Energy>  (1630) 
-4.14

>  <QM_Energy>  (1630) 
-10.78

>  <source>  (1630) 
ETAM_MSM

>  <Index>  (1630) 
10341

$$$$
ETAM-pdb6hjw-B-LYS-321:MSM-pdb6hjw-B-MET-261
     RDKit          3D

 20 18  0  0  0  0  0  0  0  0999 V2000
    1.2493    0.8587   -0.0000 C   0  0  0  0  0  0  0  0  0  0  0  0
    1.1697    1.5385    0.7223 H   0  0  0  0  0  0  0  0  0  0  0  0
    1.3300    1.3045   -0.8860 H   0  0  0  0  0  0  0  0  0  0  0  0
    2.1434    0.2610    0.1770 H   0  0  0  0  0  0  0  0  0  0  0  0
    0.0000    0.0000    0.0000 C   0  0  0  0  0  0  0  0  0  0  0  0
    0.0082   -0.5896   -0.8158 H   0  0  0  0  0  0  0  0  0  0  0  0
    0.0083   -0.5902    0.8162 H   0  0  0  0  0  0  0  0  0  0  0  0
   -1.2493    0.8104    0.0000 N   0  0  0  0  0  4  0  0  0  0  0  0
   -1.9884    0.2801   -0.4146 H   0  0  0  0  0  0  0  0  0  0  0  0
   -1.4921    1.0447    0.9403 H   0  0  0  0  0  0  0  0  0  0  0  0
   -1.1014    1.6468   -0.5266 H   0  0  0  0  0  0  0  0  0  0  0  0
   -2.7961   -3.9554   -1.0928 C   0  0  0  0  0  0  0  0  0  0  0  0
   -3.2999   -3.9530   -1.9809 H   0  0  0  0  0  0  0  0  0  0  0  0
   -3.4310   -3.5506   -0.4028 H   0  0  0  0  0  0  0  0  0  0  0  0
   -2.5813   -4.9866   -0.8129 H   0  0  0  0  0  0  0  0  0  0  0  0
   -1.2871   -2.9848   -1.2146 S   0  0  0  0  0  0  0  0  0  0  0  0
   -0.7672   -3.3731   -2.8826 C   0  0  0  0  0  0  0  0  0  0  0  0
   -0.8075   -2.5481   -3.4484 H   0  0  0  0  0  0  0  0  0  0  0  0
    0.1721   -3.7208   -2.8700 H   0  0  0  0  0  0  0  0  0  0  0  0
   -1.3729   -4.0706   -3.2703 H   0  0  0  0  0  0  0  0  0  0  0  0
  1  5  1  0
  5  8  1  0
  1  2  1  0
  1  3  1  0
  1  4  1  0
  5  6  1  0
  5  7  1  0
  8  9  1  0
  8 10  1  0
  8 11  1  0
 12 16  1  0
 16 17  1  0
 12 13  1  0
 12 14  1  0
 12 15  1  0
 17 18  1  0
 17 19  1  0
 17 20  1  0
M  CHG  1   8   1
M  END
>  <PDB_ID>  (1631) 
pdb6hjw

>  <RESIDUE_NAME>  (1631) 
LYS   MET

>  <FRAG_NAME>  (1631) 
ETAM   MSM

>  <FRAG_ATOM_NUM>  (1631) 
fragi: 11  fragj: 9

>  <atom.prop.CHAIN_ID>  (1631) 
A A A A A A A A A A A Z Z Z Z Z Z Z Z Z

>  <atom.prop.IS_HEAVY_ATOM>  (1631) 
1 0 0 0 1 0 0 1 0 0 0 1 0 0 0 1 1 0 0 0

>  <DIFUSE_FUNC_ATOM>  (1631) 
n/a

>  <FINAL_SINGLE_POINT_ENERGY>  (1631) 
0

>  <NONCOV_INTER_ENERGY_QM>  (1631) 
0

>  <FF_Energy>  (1631) 
-4.09

>  <QM_Energy>  (1631) 
-10.06

>  <source>  (1631) 
ETAM_MSM

>  <Index>  (1631) 
10347

$$$$
ETAM-pdb5h7j-B-LYS-15:MSM-pdb5h7j-B-MET-352
     RDKit          3D

 20 18  0  0  0  0  0  0  0  0999 V2000
    1.2558    0.8716   -0.0000 C   0  0  0  0  0  0  0  0  0  0  0  0
    1.6600    0.8373    0.9022 H   0  0  0  0  0  0  0  0  0  0  0  0
    0.9959    1.7947   -0.2428 H   0  0  0  0  0  0  0  0  0  0  0  0
    1.9749    0.4980   -0.7290 H   0  0  0  0  0  0  0  0  0  0  0  0
    0.0000    0.0000    0.0000 C   0  0  0  0  0  0  0  0  0  0  0  0
    0.0150   -0.5867   -0.8159 H   0  0  0  0  0  0  0  0  0  0  0  0
    0.0149   -0.5871    0.8167 H   0  0  0  0  0  0  0  0  0  0  0  0
   -1.2558    0.8063   -0.0000 N   0  0  0  0  0  4  0  0  0  0  0  0
   -1.3586    1.2567   -0.8857 H   0  0  0  0  0  0  0  0  0  0  0  0
   -2.0350    0.2033    0.1627 H   0  0  0  0  0  0  0  0  0  0  0  0
   -1.2056    1.4937    0.7227 H   0  0  0  0  0  0  0  0  0  0  0  0
   -2.3050    2.4857   -3.5585 C   0  0  0  0  0  0  0  0  0  0  0  0
   -2.9170    1.6768   -3.5932 H   0  0  0  0  0  0  0  0  0  0  0  0
   -1.7681    2.4915   -4.4198 H   0  0  0  0  0  0  0  0  0  0  0  0
   -2.9133    3.3890   -3.5126 H   0  0  0  0  0  0  0  0  0  0  0  0
   -1.2197    2.4049   -2.1302 S   0  0  0  0  0  0  0  0  0  0  0  0
   -0.4277    4.0031   -2.2225 C   0  0  0  0  0  0  0  0  0  0  0  0
   -1.0033    4.6362   -2.7432 H   0  0  0  0  0  0  0  0  0  0  0  0
   -0.2891    4.3660   -1.2993 H   0  0  0  0  0  0  0  0  0  0  0  0
    0.4601    3.9145   -2.6779 H   0  0  0  0  0  0  0  0  0  0  0  0
  1  5  1  0
  5  8  1  0
  1  2  1  0
  1  3  1  0
  1  4  1  0
  5  6  1  0
  5  7  1  0
  8  9  1  0
  8 10  1  0
  8 11  1  0
 12 16  1  0
 16 17  1  0
 12 13  1  0
 12 14  1  0
 12 15  1  0
 17 18  1  0
 17 19  1  0
 17 20  1  0
M  CHG  1   8   1
M  END
>  <PDB_ID>  (1632) 
pdb5h7j

>  <RESIDUE_NAME>  (1632) 
LYS   MET

>  <FRAG_NAME>  (1632) 
ETAM   MSM

>  <FRAG_ATOM_NUM>  (1632) 
fragi: 11  fragj: 9

>  <atom.prop.CHAIN_ID>  (1632) 
A A A A A A A A A A A Z Z Z Z Z Z Z Z Z

>  <atom.prop.IS_HEAVY_ATOM>  (1632) 
1 0 0 0 1 0 0 1 0 0 0 1 0 0 0 1 1 0 0 0

>  <DIFUSE_FUNC_ATOM>  (1632) 
n/a

>  <FINAL_SINGLE_POINT_ENERGY>  (1632) 
0

>  <NONCOV_INTER_ENERGY_QM>  (1632) 
0

>  <FF_Energy>  (1632) 
12.97

>  <QM_Energy>  (1632) 
-2.13

>  <source>  (1632) 
ETAM_MSM

>  <Index>  (1632) 
10350

$$$$
ETAM-pdb5hgw-A-LYS-114:MSM-pdb5hgw-A-MET-88
     RDKit          3D

 20 18  0  0  0  0  0  0  0  0999 V2000
    1.2306    0.8550   -0.0000 C   0  0  0  0  0  0  0  0  0  0  0  0
    2.0294    0.2790    0.1344 H   0  0  0  0  0  0  0  0  0  0  0  0
    1.1617    1.5281    0.7279 H   0  0  0  0  0  0  0  0  0  0  0  0
    1.3364    1.3790   -0.9499 H   0  0  0  0  0  0  0  0  0  0  0  0
    0.0000    0.0000    0.0000 C   0  0  0  0  0  0  0  0  0  0  0  0
   -0.0037   -0.5818   -0.8166 H   0  0  0  0  0  0  0  0  0  0  0  0
   -0.0045   -0.5819    0.8166 H   0  0  0  0  0  0  0  0  0  0  0  0
   -1.2306    0.8374    0.0000 N   0  0  0  0  0  4  0  0  0  0  0  0
   -1.1905    1.4860    0.7600 H   0  0  0  0  0  0  0  0  0  0  0  0
   -1.2913    1.3374   -0.8637 H   0  0  0  0  0  0  0  0  0  0  0  0
   -2.0324    0.2490    0.1035 H   0  0  0  0  0  0  0  0  0  0  0  0
   -2.1962    6.1716    0.5470 C   0  0  0  0  0  0  0  0  0  0  0  0
   -2.8059    6.4994    1.2924 H   0  0  0  0  0  0  0  0  0  0  0  0
   -2.3787    6.7598   -0.2619 H   0  0  0  0  0  0  0  0  0  0  0  0
   -1.1585    6.3006    0.8543 H   0  0  0  0  0  0  0  0  0  0  0  0
   -2.5329    4.4427    0.1648 S   0  0  0  0  0  0  0  0  0  0  0  0
   -4.2746    4.5519    0.0770 C   0  0  0  0  0  0  0  0  0  0  0  0
   -4.5699    4.8252   -0.8479 H   0  0  0  0  0  0  0  0  0  0  0  0
   -4.7002    3.6631    0.2932 H   0  0  0  0  0  0  0  0  0  0  0  0
   -4.6243    5.2345    0.7327 H   0  0  0  0  0  0  0  0  0  0  0  0
  1  5  1  0
  5  8  1  0
  1  2  1  0
  1  3  1  0
  1  4  1  0
  5  6  1  0
  5  7  1  0
  8  9  1  0
  8 10  1  0
  8 11  1  0
 12 16  1  0
 16 17  1  0
 12 13  1  0
 12 14  1  0
 12 15  1  0
 17 18  1  0
 17 19  1  0
 17 20  1  0
M  CHG  1   8   1
M  END
>  <PDB_ID>  (1633) 
pdb5hgw

>  <RESIDUE_NAME>  (1633) 
LYS   MET

>  <FRAG_NAME>  (1633) 
ETAM   MSM

>  <FRAG_ATOM_NUM>  (1633) 
fragi: 11  fragj: 9

>  <atom.prop.CHAIN_ID>  (1633) 
A A A A A A A A A A A Z Z Z Z Z Z Z Z Z

>  <atom.prop.IS_HEAVY_ATOM>  (1633) 
1 0 0 0 1 0 0 1 0 0 0 1 0 0 0 1 1 0 0 0

>  <DIFUSE_FUNC_ATOM>  (1633) 
n/a

>  <FINAL_SINGLE_POINT_ENERGY>  (1633) 
0

>  <NONCOV_INTER_ENERGY_QM>  (1633) 
0

>  <FF_Energy>  (1633) 
-4.63

>  <QM_Energy>  (1633) 
-10.1

>  <source>  (1633) 
ETAM_MSM

>  <Index>  (1633) 
10369

$$$$
ETAM-pdb5hes-A-LYS-128:MSM-pdb5hes-A-MET-123
     RDKit          3D

 20 18  0  0  0  0  0  0  0  0999 V2000
    1.2752    0.7193    0.0000 C   0  0  0  0  0  0  0  0  0  0  0  0
    1.3751    1.2413   -0.8474 H   0  0  0  0  0  0  0  0  0  0  0  0
    2.0328    0.0733    0.0864 H   0  0  0  0  0  0  0  0  0  0  0  0
    1.3313    1.4189    0.8340 H   0  0  0  0  0  0  0  0  0  0  0  0
    0.0000    0.0000    0.0000 C   0  0  0  0  0  0  0  0  0  0  0  0
   -0.0302   -0.6505   -0.8159 H   0  0  0  0  0  0  0  0  0  0  0  0
   -0.0300   -0.6502    0.8160 H   0  0  0  0  0  0  0  0  0  0  0  0
   -1.2752    0.7660   -0.0000 N   0  0  0  0  0  4  0  0  0  0  0  0
   -1.6324    0.8149   -0.9320 H   0  0  0  0  0  0  0  0  0  0  0  0
   -1.9393    0.3060    0.5891 H   0  0  0  0  0  0  0  0  0  0  0  0
   -1.1074    1.6900    0.3434 H   0  0  0  0  0  0  0  0  0  0  0  0
   -6.0806    2.1207    1.1065 C   0  0  0  0  0  0  0  0  0  0  0  0
   -5.9146    2.0258    2.1269 H   0  0  0  0  0  0  0  0  0  0  0  0
   -7.0878    1.8945    0.9986 H   0  0  0  0  0  0  0  0  0  0  0  0
   -5.9368    3.1669    0.8367 H   0  0  0  0  0  0  0  0  0  0  0  0
   -5.0662    0.9422    0.1875 S   0  0  0  0  0  0  0  0  0  0  0  0
   -5.4326    1.3086   -1.5125 C   0  0  0  0  0  0  0  0  0  0  0  0
   -6.1782    0.7210   -1.8367 H   0  0  0  0  0  0  0  0  0  0  0  0
   -5.7106    2.2686   -1.6044 H   0  0  0  0  0  0  0  0  0  0  0  0
   -4.6209    1.1484   -2.0801 H   0  0  0  0  0  0  0  0  0  0  0  0
  1  5  1  0
  5  8  1  0
  1  2  1  0
  1  3  1  0
  1  4  1  0
  5  6  1  0
  5  7  1  0
  8  9  1  0
  8 10  1  0
  8 11  1  0
 12 16  1  0
 16 17  1  0
 12 13  1  0
 12 14  1  0
 12 15  1  0
 17 18  1  0
 17 19  1  0
 17 20  1  0
M  CHG  1   8   1
M  END
>  <PDB_ID>  (1634) 
pdb5hes

>  <RESIDUE_NAME>  (1634) 
LYS   MET

>  <FRAG_NAME>  (1634) 
ETAM   MSM

>  <FRAG_ATOM_NUM>  (1634) 
fragi: 11  fragj: 9

>  <atom.prop.CHAIN_ID>  (1634) 
A A A A A A A A A A A Z Z Z Z Z Z Z Z Z

>  <atom.prop.IS_HEAVY_ATOM>  (1634) 
1 0 0 0 1 0 0 1 0 0 0 1 0 0 0 1 1 0 0 0

>  <DIFUSE_FUNC_ATOM>  (1634) 
n/a

>  <FINAL_SINGLE_POINT_ENERGY>  (1634) 
0

>  <NONCOV_INTER_ENERGY_QM>  (1634) 
0

>  <FF_Energy>  (1634) 
-4.18

>  <QM_Energy>  (1634) 
-10.3

>  <source>  (1634) 
ETAM_MSM

>  <Index>  (1634) 
10373

$$$$
ETAM-pdb5hgc-A-LYS-169:MSM-pdb5hgc-A-MET-120
     RDKit          3D

 20 18  0  0  0  0  0  0  0  0999 V2000
    1.3295    0.7460   -0.0000 C   0  0  0  0  0  0  0  0  0  0  0  0
    1.2831    1.4728   -0.6795 H   0  0  0  0  0  0  0  0  0  0  0  0
    2.0514    0.1022   -0.2333 H   0  0  0  0  0  0  0  0  0  0  0  0
    1.5449    1.1846    0.9743 H   0  0  0  0  0  0  0  0  0  0  0  0
    0.0000    0.0000    0.0000 C   0  0  0  0  0  0  0  0  0  0  0  0
    0.0054   -0.6637   -0.8161 H   0  0  0  0  0  0  0  0  0  0  0  0
    0.0047   -0.6629    0.8166 H   0  0  0  0  0  0  0  0  0  0  0  0
   -1.3295    0.7025   -0.0000 N   0  0  0  0  0  4  0  0  0  0  0  0
   -1.8909    0.3341    0.7369 H   0  0  0  0  0  0  0  0  0  0  0  0
   -1.1802    1.6783    0.1411 H   0  0  0  0  0  0  0  0  0  0  0  0
   -1.7769    0.5494   -0.8783 H   0  0  0  0  0  0  0  0  0  0  0  0
   -2.5107    3.4465    2.2366 C   0  0  0  0  0  0  0  0  0  0  0  0
   -2.9980    2.6469    1.7324 H   0  0  0  0  0  0  0  0  0  0  0  0
   -3.2356    4.2155    2.1199 H   0  0  0  0  0  0  0  0  0  0  0  0
   -2.4802    3.1891    3.2954 H   0  0  0  0  0  0  0  0  0  0  0  0
   -0.9824    3.8996    1.3403 S   0  0  0  0  0  0  0  0  0  0  0  0
   -0.3181    5.3541    2.1890 C   0  0  0  0  0  0  0  0  0  0  0  0
    0.6240    5.1708    2.4611 H   0  0  0  0  0  0  0  0  0  0  0  0
   -0.3459    6.1352    1.5683 H   0  0  0  0  0  0  0  0  0  0  0  0
   -0.8730    5.5427    2.9972 H   0  0  0  0  0  0  0  0  0  0  0  0
  1  5  1  0
  5  8  1  0
  1  2  1  0
  1  3  1  0
  1  4  1  0
  5  6  1  0
  5  7  1  0
  8  9  1  0
  8 10  1  0
  8 11  1  0
 12 16  1  0
 16 17  1  0
 12 13  1  0
 12 14  1  0
 12 15  1  0
 17 18  1  0
 17 19  1  0
 17 20  1  0
M  CHG  1   8   1
M  END
>  <PDB_ID>  (1635) 
pdb5hgc

>  <RESIDUE_NAME>  (1635) 
LYS   MET

>  <FRAG_NAME>  (1635) 
ETAM   MSM

>  <FRAG_ATOM_NUM>  (1635) 
fragi: 11  fragj: 9

>  <atom.prop.CHAIN_ID>  (1635) 
A A A A A A A A A A A Z Z Z Z Z Z Z Z Z

>  <atom.prop.IS_HEAVY_ATOM>  (1635) 
1 0 0 0 1 0 0 1 0 0 0 1 0 0 0 1 1 0 0 0

>  <DIFUSE_FUNC_ATOM>  (1635) 
n/a

>  <FINAL_SINGLE_POINT_ENERGY>  (1635) 
0

>  <NONCOV_INTER_ENERGY_QM>  (1635) 
0

>  <FF_Energy>  (1635) 
-5.06

>  <QM_Energy>  (1635) 
-11.95

>  <source>  (1635) 
ETAM_MSM

>  <Index>  (1635) 
10378

$$$$
ETAM-pdb5hes-B-LYS-128:MSM-pdb5hes-B-MET-123
     RDKit          3D

 20 18  0  0  0  0  0  0  0  0999 V2000
    1.2139    0.8803    0.0000 C   0  0  0  0  0  0  0  0  0  0  0  0
    1.9939    0.3741    0.3259 H   0  0  0  0  0  0  0  0  0  0  0  0
    1.0440    1.6850    0.5438 H   0  0  0  0  0  0  0  0  0  0  0  0
    1.4292    1.2046   -1.0181 H   0  0  0  0  0  0  0  0  0  0  0  0
    0.0000    0.0000    0.0000 C   0  0  0  0  0  0  0  0  0  0  0  0
   -0.0099   -0.5598   -0.8156 H   0  0  0  0  0  0  0  0  0  0  0  0
   -0.0103   -0.5603    0.8165 H   0  0  0  0  0  0  0  0  0  0  0  0
   -1.2139    0.8779    0.0000 N   0  0  0  0  0  4  0  0  0  0  0  0
   -1.2229    1.4234   -0.8360 H   0  0  0  0  0  0  0  0  0  0  0  0
   -2.0308    0.3057    0.0399 H   0  0  0  0  0  0  0  0  0  0  0  0
   -1.1822    1.4786    0.7964 H   0  0  0  0  0  0  0  0  0  0  0  0
   -5.3049    3.1192   -2.0842 C   0  0  0  0  0  0  0  0  0  0  0  0
   -4.8022    3.9972   -2.0421 H   0  0  0  0  0  0  0  0  0  0  0  0
   -6.2804    3.3190   -1.9016 H   0  0  0  0  0  0  0  0  0  0  0  0
   -5.2206    2.7279   -3.0981 H   0  0  0  0  0  0  0  0  0  0  0  0
   -4.6501    1.9327   -0.9112 S   0  0  0  0  0  0  0  0  0  0  0  0
   -5.8146    0.6114   -1.1281 C   0  0  0  0  0  0  0  0  0  0  0  0
   -6.7523    0.9661   -1.0709 H   0  0  0  0  0  0  0  0  0  0  0  0
   -5.6834    0.1815   -2.0261 H   0  0  0  0  0  0  0  0  0  0  0  0
   -5.6855   -0.0817   -0.4131 H   0  0  0  0  0  0  0  0  0  0  0  0
  1  5  1  0
  5  8  1  0
  1  2  1  0
  1  3  1  0
  1  4  1  0
  5  6  1  0
  5  7  1  0
  8  9  1  0
  8 10  1  0
  8 11  1  0
 12 16  1  0
 16 17  1  0
 12 13  1  0
 12 14  1  0
 12 15  1  0
 17 18  1  0
 17 19  1  0
 17 20  1  0
M  CHG  1   8   1
M  END
>  <PDB_ID>  (1636) 
pdb5hes

>  <RESIDUE_NAME>  (1636) 
LYS   MET

>  <FRAG_NAME>  (1636) 
ETAM   MSM

>  <FRAG_ATOM_NUM>  (1636) 
fragi: 11  fragj: 9

>  <atom.prop.CHAIN_ID>  (1636) 
A A A A A A A A A A A Z Z Z Z Z Z Z Z Z

>  <atom.prop.IS_HEAVY_ATOM>  (1636) 
1 0 0 0 1 0 0 1 0 0 0 1 0 0 0 1 1 0 0 0

>  <DIFUSE_FUNC_ATOM>  (1636) 
n/a

>  <FINAL_SINGLE_POINT_ENERGY>  (1636) 
0

>  <NONCOV_INTER_ENERGY_QM>  (1636) 
0

>  <FF_Energy>  (1636) 
-4.65

>  <QM_Energy>  (1636) 
-10.67

>  <source>  (1636) 
ETAM_MSM

>  <Index>  (1636) 
10390

$$$$
ETAM-pdb6hzo-B-LYS-500:MSM-pdb6hzo-B-MET-503
     RDKit          3D

 20 18  0  0  0  0  0  0  0  0999 V2000
    1.2477    0.8674   -0.0000 C   0  0  0  0  0  0  0  0  0  0  0  0
    1.2511    1.4205    0.8274 H   0  0  0  0  0  0  0  0  0  0  0  0
    1.2294    1.4511   -0.8054 H   0  0  0  0  0  0  0  0  0  0  0  0
    2.1560    0.2653   -0.0228 H   0  0  0  0  0  0  0  0  0  0  0  0
    0.0000    0.0000    0.0000 C   0  0  0  0  0  0  0  0  0  0  0  0
    0.0171   -0.5913   -0.8156 H   0  0  0  0  0  0  0  0  0  0  0  0
    0.0169   -0.5913    0.8158 H   0  0  0  0  0  0  0  0  0  0  0  0
   -1.2477    0.7965    0.0000 N   0  0  0  0  0  4  0  0  0  0  0  0
   -1.9432    0.3310   -0.5487 H   0  0  0  0  0  0  0  0  0  0  0  0
   -1.5807    0.8993    0.9385 H   0  0  0  0  0  0  0  0  0  0  0  0
   -1.0685    1.7016   -0.3893 H   0  0  0  0  0  0  0  0  0  0  0  0
    2.0094   -1.8138    2.7059 C   0  0  0  0  0  0  0  0  0  0  0  0
    2.2756   -2.2418    3.6124 H   0  0  0  0  0  0  0  0  0  0  0  0
    2.8593   -1.9247    2.1214 H   0  0  0  0  0  0  0  0  0  0  0  0
    1.2171   -2.4206    2.2674 H   0  0  0  0  0  0  0  0  0  0  0  0
    1.5987   -0.0836    2.9132 S   0  0  0  0  0  0  0  0  0  0  0  0
    0.0903   -0.2477    3.8755 C   0  0  0  0  0  0  0  0  0  0  0  0
    0.3052   -0.6471    4.7669 H   0  0  0  0  0  0  0  0  0  0  0  0
   -0.3222    0.6542    4.0047 H   0  0  0  0  0  0  0  0  0  0  0  0
   -0.5517   -0.8418    3.3904 H   0  0  0  0  0  0  0  0  0  0  0  0
  1  5  1  0
  5  8  1  0
  1  2  1  0
  1  3  1  0
  1  4  1  0
  5  6  1  0
  5  7  1  0
  8  9  1  0
  8 10  1  0
  8 11  1  0
 12 16  1  0
 16 17  1  0
 12 13  1  0
 12 14  1  0
 12 15  1  0
 17 18  1  0
 17 19  1  0
 17 20  1  0
M  CHG  1   8   1
M  END
>  <PDB_ID>  (1637) 
pdb6hzo

>  <RESIDUE_NAME>  (1637) 
LYS   MET

>  <FRAG_NAME>  (1637) 
ETAM   MSM

>  <FRAG_ATOM_NUM>  (1637) 
fragi: 11  fragj: 9

>  <atom.prop.CHAIN_ID>  (1637) 
A A A A A A A A A A A Z Z Z Z Z Z Z Z Z

>  <atom.prop.IS_HEAVY_ATOM>  (1637) 
1 0 0 0 1 0 0 1 0 0 0 1 0 0 0 1 1 0 0 0

>  <DIFUSE_FUNC_ATOM>  (1637) 
n/a

>  <FINAL_SINGLE_POINT_ENERGY>  (1637) 
0

>  <NONCOV_INTER_ENERGY_QM>  (1637) 
0

>  <FF_Energy>  (1637) 
1.83

>  <QM_Energy>  (1637) 
-3.68

>  <source>  (1637) 
ETAM_MSM

>  <Index>  (1637) 
10398

$$$$
ETAM-pdb6i2q-A-LYS-1127:MSM-pdb6i2q-A-MET-1098
     RDKit          3D

 20 18  0  0  0  0  0  0  0  0999 V2000
    1.2424    0.8601   -0.0000 C   0  0  0  0  0  0  0  0  0  0  0  0
    1.0872    1.6465    0.5777 H   0  0  0  0  0  0  0  0  0  0  0  0
    1.4448    1.1275   -0.9289 H   0  0  0  0  0  0  0  0  0  0  0  0
    2.0794    0.2860    0.3972 H   0  0  0  0  0  0  0  0  0  0  0  0
    0.0000    0.0000    0.0000 C   0  0  0  0  0  0  0  0  0  0  0  0
    0.0080   -0.5884   -0.8158 H   0  0  0  0  0  0  0  0  0  0  0  0
    0.0081   -0.5881    0.8165 H   0  0  0  0  0  0  0  0  0  0  0  0
   -1.2424    0.8125    0.0000 N   0  0  0  0  0  4  0  0  0  0  0  0
   -1.9494    0.3400   -0.5269 H   0  0  0  0  0  0  0  0  0  0  0  0
   -1.5566    0.9405    0.9408 H   0  0  0  0  0  0  0  0  0  0  0  0
   -1.0581    1.7041   -0.4142 H   0  0  0  0  0  0  0  0  0  0  0  0
   -3.6043   -0.3886   -3.7185 C   0  0  0  0  0  0  0  0  0  0  0  0
   -3.3032    0.5363   -4.0261 H   0  0  0  0  0  0  0  0  0  0  0  0
   -4.5101   -0.2591   -3.2669 H   0  0  0  0  0  0  0  0  0  0  0  0
   -3.7345   -1.0254   -4.5936 H   0  0  0  0  0  0  0  0  0  0  0  0
   -2.4090   -1.0912   -2.5555 S   0  0  0  0  0  0  0  0  0  0  0  0
   -3.4736   -1.9967   -1.5129 C   0  0  0  0  0  0  0  0  0  0  0  0
   -3.5720   -2.9470   -1.8374 H   0  0  0  0  0  0  0  0  0  0  0  0
   -3.1154   -2.0239   -0.5702 H   0  0  0  0  0  0  0  0  0  0  0  0
   -4.3917   -1.5787   -1.4866 H   0  0  0  0  0  0  0  0  0  0  0  0
  1  5  1  0
  5  8  1  0
  1  2  1  0
  1  3  1  0
  1  4  1  0
  5  6  1  0
  5  7  1  0
  8  9  1  0
  8 10  1  0
  8 11  1  0
 12 16  1  0
 16 17  1  0
 12 13  1  0
 12 14  1  0
 12 15  1  0
 17 18  1  0
 17 19  1  0
 17 20  1  0
M  CHG  1   8   1
M  END
>  <PDB_ID>  (1638) 
pdb6i2q

>  <RESIDUE_NAME>  (1638) 
LYS   MET

>  <FRAG_NAME>  (1638) 
ETAM   MSM

>  <FRAG_ATOM_NUM>  (1638) 
fragi: 11  fragj: 9

>  <atom.prop.CHAIN_ID>  (1638) 
A A A A A A A A A A A Z Z Z Z Z Z Z Z Z

>  <atom.prop.IS_HEAVY_ATOM>  (1638) 
1 0 0 0 1 0 0 1 0 0 0 1 0 0 0 1 1 0 0 0

>  <DIFUSE_FUNC_ATOM>  (1638) 
n/a

>  <FINAL_SINGLE_POINT_ENERGY>  (1638) 
0

>  <NONCOV_INTER_ENERGY_QM>  (1638) 
0

>  <FF_Energy>  (1638) 
-5.17

>  <QM_Energy>  (1638) 
-15.02

>  <source>  (1638) 
ETAM_MSM

>  <Index>  (1638) 
10407

$$$$
ETAM-pdb5hs7-B-MET-4:MSM-pdb5hs7-B-MET-9
     RDKit          3D

 20 18  0  0  0  0  0  0  0  0999 V2000
    1.2394    0.8813   -0.0000 C   0  0  0  0  0  0  0  0  0  0  0  0
    2.0596    0.2960    0.1530 H   0  0  0  0  0  0  0  0  0  0  0  0
    1.3481    1.2964   -0.9244 H   0  0  0  0  0  0  0  0  0  0  0  0
    1.2550    1.6852    0.7360 H   0  0  0  0  0  0  0  0  0  0  0  0
    0.0000    0.0000    0.0000 C   0  0  0  0  0  0  0  0  0  0  0  0
   -0.0237   -0.5560   -0.8373 H   0  0  0  0  0  0  0  0  0  0  0  0
    0.0277   -0.6655    0.8628 H   0  0  0  0  0  0  0  0  0  0  0  0
   -1.2394    0.8466   -0.0000 N   0  0  0  0  0  4  0  0  0  0  0  0
   -1.1632    1.5287   -0.7202 H   0  0  0  0  0  0  0  0  0  0  0  0
   -2.0280    0.2629   -0.1646 H   0  0  0  0  0  0  0  0  0  0  0  0
   -1.3235    1.2928    0.8852 H   0  0  0  0  0  0  0  0  0  0  0  0
    2.2046   -0.3295   -4.9324 C   0  0  0  0  0  0  0  0  0  0  0  0
    2.6829    0.4152   -5.4358 H   0  0  0  0  0  0  0  0  0  0  0  0
    1.3720   -0.5568   -5.4723 H   0  0  0  0  0  0  0  0  0  0  0  0
    2.8535   -1.2049   -4.9075 H   0  0  0  0  0  0  0  0  0  0  0  0
    1.7673    0.1977   -3.2692 S   0  0  0  0  0  0  0  0  0  0  0  0
    3.4364    0.6511   -2.7742 C   0  0  0  0  0  0  0  0  0  0  0  0
    3.6747    0.1695   -1.9306 H   0  0  0  0  0  0  0  0  0  0  0  0
    4.0783    0.3965   -3.4977 H   0  0  0  0  0  0  0  0  0  0  0  0
    3.4803    1.6382   -2.6201 H   0  0  0  0  0  0  0  0  0  0  0  0
  1  5  1  0
  5  8  1  0
  1  2  1  0
  1  3  1  0
  1  4  1  0
  5  6  1  0
  5  7  1  0
  8  9  1  0
  8 10  1  0
  8 11  1  0
 12 16  1  0
 16 17  1  0
 12 13  1  0
 12 14  1  0
 12 15  1  0
 17 18  1  0
 17 19  1  0
 17 20  1  0
M  CHG  1   8   1
M  END
>  <PDB_ID>  (1639) 
pdb5hs7

>  <RESIDUE_NAME>  (1639) 
MET   MET

>  <FRAG_NAME>  (1639) 
ETAM   MSM

>  <FRAG_ATOM_NUM>  (1639) 
fragi: 11  fragj: 9

>  <atom.prop.CHAIN_ID>  (1639) 
A A A A A A A A A A A Z Z Z Z Z Z Z Z Z

>  <atom.prop.IS_HEAVY_ATOM>  (1639) 
1 0 0 0 1 0 0 1 0 0 0 1 0 0 0 1 1 0 0 0

>  <DIFUSE_FUNC_ATOM>  (1639) 
n/a

>  <FINAL_SINGLE_POINT_ENERGY>  (1639) 
0

>  <NONCOV_INTER_ENERGY_QM>  (1639) 
0

>  <FF_Energy>  (1639) 
-2.67

>  <QM_Energy>  (1639) 
-8.18

>  <source>  (1639) 
ETAM_MSM

>  <Index>  (1639) 
10419

$$$$
ETAM-pdb5hoe-D-LYS-99:MSM-pdb5hoe-D-MET-155
     RDKit          3D

 20 18  0  0  0  0  0  0  0  0999 V2000
    1.2599    0.8604    0.0000 C   0  0  0  0  0  0  0  0  0  0  0  0
    1.2617    1.3928    0.8113 H   0  0  0  0  0  0  0  0  0  0  0  0
    1.2298    1.4404   -0.7774 H   0  0  0  0  0  0  0  0  0  0  0  0
    2.1701    0.2617   -0.0364 H   0  0  0  0  0  0  0  0  0  0  0  0
    0.0000    0.0000    0.0000 C   0  0  0  0  0  0  0  0  0  0  0  0
   -0.0009   -0.5561   -0.7947 H   0  0  0  0  0  0  0  0  0  0  0  0
   -0.0015   -0.5564    0.7947 H   0  0  0  0  0  0  0  0  0  0  0  0
   -1.2599    0.8066    0.0000 N   0  0  0  0  0  4  0  0  0  0  0  0
   -1.9661    0.2664   -0.0006 H   0  0  0  0  0  0  0  0  0  0  0  0
   -1.2901    1.3233    0.7236 H   0  0  0  0  0  0  0  0  0  0  0  0
   -1.2901    1.3229   -0.7252 H   0  0  0  0  0  0  0  0  0  0  0  0
    0.9200    0.0650   -3.8205 C   0  0  0  0  0  0  0  0  0  0  0  0
    1.4488   -0.1494   -3.0355 H   0  0  0  0  0  0  0  0  0  0  0  0
    0.8802    1.0267   -3.9413 H   0  0  0  0  0  0  0  0  0  0  0  0
    1.3882   -0.3835   -4.6967 H   0  0  0  0  0  0  0  0  0  0  0  0
   -0.7554   -0.5327   -3.5450 S   0  0  0  0  0  0  0  0  0  0  0  0
   -1.6071    0.1488   -4.9671 C   0  0  0  0  0  0  0  0  0  0  0  0
   -2.5408   -0.1116   -4.9304 H   0  0  0  0  0  0  0  0  0  0  0  0
   -1.5313    1.1158   -4.9471 H   0  0  0  0  0  0  0  0  0  0  0  0
   -1.1987   -0.1981   -5.7762 H   0  0  0  0  0  0  0  0  0  0  0  0
  1  5  1  0
  5  8  1  0
  1  2  1  0
  1  3  1  0
  1  4  1  0
  5  6  1  0
  5  7  1  0
  8  9  1  0
  8 10  1  0
  8 11  1  0
 12 16  1  0
 16 17  1  0
 12 13  1  0
 12 14  1  0
 12 15  1  0
 17 18  1  0
 17 19  1  0
 17 20  1  0
M  CHG  1   8   1
M  END
>  <PDB_ID>  (1640) 
pdb5hoe

>  <RESIDUE_NAME>  (1640) 
LYS   MET

>  <FRAG_NAME>  (1640) 
ETAM   MSM

>  <FRAG_ATOM_NUM>  (1640) 
fragi: 11  fragj: 9

>  <atom.prop.CHAIN_ID>  (1640) 
A A A A A A A A A A A Z Z Z Z Z Z Z Z Z

>  <atom.prop.IS_HEAVY_ATOM>  (1640) 
1 0 0 0 1 0 0 1 0 0 0 1 0 0 0 1 1 0 0 0

>  <DIFUSE_FUNC_ATOM>  (1640) 
n/a

>  <FINAL_SINGLE_POINT_ENERGY>  (1640) 
0

>  <NONCOV_INTER_ENERGY_QM>  (1640) 
0

>  <FF_Energy>  (1640) 
-4.49

>  <QM_Energy>  (1640) 
-10.93

>  <source>  (1640) 
ETAM_MSM

>  <Index>  (1640) 
10433

$$$$
ETAM-pdb5hu8-A-LYS-304:MSM-pdb5hu8-B-MET-59
     RDKit          3D

 20 18  0  0  0  0  0  0  0  0999 V2000
    1.2324    0.8856   -0.0000 C   0  0  0  0  0  0  0  0  0  0  0  0
    2.0361    0.3145    0.2150 H   0  0  0  0  0  0  0  0  0  0  0  0
    1.1316    1.5724    0.7317 H   0  0  0  0  0  0  0  0  0  0  0  0
    1.4236    1.4075   -0.9377 H   0  0  0  0  0  0  0  0  0  0  0  0
    0.0000    0.0000    0.0000 C   0  0  0  0  0  0  0  0  0  0  0  0
    0.0102   -0.5737   -0.8163 H   0  0  0  0  0  0  0  0  0  0  0  0
    0.0100   -0.5738    0.8163 H   0  0  0  0  0  0  0  0  0  0  0  0
   -1.2324    0.8326    0.0000 N   0  0  0  0  0  4  0  0  0  0  0  0
   -1.9828    0.3149   -0.4103 H   0  0  0  0  0  0  0  0  0  0  0  0
   -1.4688    1.0760    0.9401 H   0  0  0  0  0  0  0  0  0  0  0  0
   -1.0712    1.6645   -0.5304 H   0  0  0  0  0  0  0  0  0  0  0  0
   -2.2837    3.1456   -3.3432 C   0  0  0  0  0  0  0  0  0  0  0  0
   -1.6466    3.9408   -3.1798 H   0  0  0  0  0  0  0  0  0  0  0  0
   -2.8517    3.0883   -2.4832 H   0  0  0  0  0  0  0  0  0  0  0  0
   -2.9443    3.4047   -4.1706 H   0  0  0  0  0  0  0  0  0  0  0  0
   -1.3505    1.6224   -3.5933 S   0  0  0  0  0  0  0  0  0  0  0  0
   -0.0782    2.1825   -4.7150 C   0  0  0  0  0  0  0  0  0  0  0  0
    0.7755    2.3292   -4.2113 H   0  0  0  0  0  0  0  0  0  0  0  0
    0.0731    1.4939   -5.4268 H   0  0  0  0  0  0  0  0  0  0  0  0
   -0.3608    3.0426   -5.1440 H   0  0  0  0  0  0  0  0  0  0  0  0
  1  5  1  0
  5  8  1  0
  1  2  1  0
  1  3  1  0
  1  4  1  0
  5  6  1  0
  5  7  1  0
  8  9  1  0
  8 10  1  0
  8 11  1  0
 12 16  1  0
 16 17  1  0
 12 13  1  0
 12 14  1  0
 12 15  1  0
 17 18  1  0
 17 19  1  0
 17 20  1  0
M  CHG  1   8   1
M  END
>  <PDB_ID>  (1641) 
pdb5hu8

>  <RESIDUE_NAME>  (1641) 
LYS   MET

>  <FRAG_NAME>  (1641) 
ETAM   MSM

>  <FRAG_ATOM_NUM>  (1641) 
fragi: 11  fragj: 9

>  <atom.prop.CHAIN_ID>  (1641) 
A A A A A A A A A A A Z Z Z Z Z Z Z Z Z

>  <atom.prop.IS_HEAVY_ATOM>  (1641) 
1 0 0 0 1 0 0 1 0 0 0 1 0 0 0 1 1 0 0 0

>  <DIFUSE_FUNC_ATOM>  (1641) 
n/a

>  <FINAL_SINGLE_POINT_ENERGY>  (1641) 
0

>  <NONCOV_INTER_ENERGY_QM>  (1641) 
0

>  <FF_Energy>  (1641) 
-4.75

>  <QM_Energy>  (1641) 
-11.32

>  <source>  (1641) 
ETAM_MSM

>  <Index>  (1641) 
10446

$$$$
ETAM-pdb5hu8-E-LYS-304:MSM-pdb5hu8-F-MET-59
     RDKit          3D

 20 18  0  0  0  0  0  0  0  0999 V2000
    1.2400    0.8726   -0.0000 C   0  0  0  0  0  0  0  0  0  0  0  0
    2.0391    0.2920    0.2100 H   0  0  0  0  0  0  0  0  0  0  0  0
    1.1501    1.5561    0.7375 H   0  0  0  0  0  0  0  0  0  0  0  0
    1.4341    1.3986   -0.9348 H   0  0  0  0  0  0  0  0  0  0  0  0
    0.0000    0.0000    0.0000 C   0  0  0  0  0  0  0  0  0  0  0  0
    0.0089   -0.5813   -0.8163 H   0  0  0  0  0  0  0  0  0  0  0  0
    0.0089   -0.5809    0.8160 H   0  0  0  0  0  0  0  0  0  0  0  0
   -1.2400    0.8224    0.0000 N   0  0  0  0  0  4  0  0  0  0  0  0
   -0.9985    1.7878   -0.0951 H   0  0  0  0  0  0  0  0  0  0  0  0
   -1.8217    0.5459   -0.7646 H   0  0  0  0  0  0  0  0  0  0  0  0
   -1.7303    0.6838    0.8600 H   0  0  0  0  0  0  0  0  0  0  0  0
   -2.2540    3.1504   -3.3243 C   0  0  0  0  0  0  0  0  0  0  0  0
   -1.6268    3.9601   -3.1474 H   0  0  0  0  0  0  0  0  0  0  0  0
   -2.8092    3.0778   -2.4488 H   0  0  0  0  0  0  0  0  0  0  0  0
   -2.9290    3.4118   -4.1392 H   0  0  0  0  0  0  0  0  0  0  0  0
   -1.2744    1.6417   -3.5697 S   0  0  0  0  0  0  0  0  0  0  0  0
   -0.0231    2.2681   -4.6946 C   0  0  0  0  0  0  0  0  0  0  0  0
    0.3803    1.5070   -5.2022 H   0  0  0  0  0  0  0  0  0  0  0  0
   -0.4428    2.9108   -5.3361 H   0  0  0  0  0  0  0  0  0  0  0  0
    0.6903    2.7362   -4.1725 H   0  0  0  0  0  0  0  0  0  0  0  0
  1  5  1  0
  5  8  1  0
  1  2  1  0
  1  3  1  0
  1  4  1  0
  5  6  1  0
  5  7  1  0
  8  9  1  0
  8 10  1  0
  8 11  1  0
 12 16  1  0
 16 17  1  0
 12 13  1  0
 12 14  1  0
 12 15  1  0
 17 18  1  0
 17 19  1  0
 17 20  1  0
M  CHG  1   8   1
M  END
>  <PDB_ID>  (1642) 
pdb5hu8

>  <RESIDUE_NAME>  (1642) 
LYS   MET

>  <FRAG_NAME>  (1642) 
ETAM   MSM

>  <FRAG_ATOM_NUM>  (1642) 
fragi: 11  fragj: 9

>  <atom.prop.CHAIN_ID>  (1642) 
A A A A A A A A A A A Z Z Z Z Z Z Z Z Z

>  <atom.prop.IS_HEAVY_ATOM>  (1642) 
1 0 0 0 1 0 0 1 0 0 0 1 0 0 0 1 1 0 0 0

>  <DIFUSE_FUNC_ATOM>  (1642) 
n/a

>  <FINAL_SINGLE_POINT_ENERGY>  (1642) 
0

>  <NONCOV_INTER_ENERGY_QM>  (1642) 
0

>  <FF_Energy>  (1642) 
-4.76

>  <QM_Energy>  (1642) 
-10.96

>  <source>  (1642) 
ETAM_MSM

>  <Index>  (1642) 
10447

$$$$
ETAM-pdb5i3e-B-LYS-333:MSM-pdb5i3e-B-MET-341
     RDKit          3D

 20 18  0  0  0  0  0  0  0  0999 V2000
    1.2321    0.8756    0.0000 C   0  0  0  0  0  0  0  0  0  0  0  0
    1.2147    1.4535    0.8168 H   0  0  0  0  0  0  0  0  0  0  0  0
    1.2142    1.4530   -0.8165 H   0  0  0  0  0  0  0  0  0  0  0  0
    2.1562    0.2976    0.0003 H   0  0  0  0  0  0  0  0  0  0  0  0
    0.0000    0.0000    0.0000 C   0  0  0  0  0  0  0  0  0  0  0  0
    0.0082   -0.5778   -0.8161 H   0  0  0  0  0  0  0  0  0  0  0  0
    0.0085   -0.5782    0.8167 H   0  0  0  0  0  0  0  0  0  0  0  0
   -1.2321    0.8284   -0.0000 N   0  0  0  0  0  4  0  0  0  0  0  0
   -2.0334    0.2345   -0.0783 H   0  0  0  0  0  0  0  0  0  0  0  0
   -1.2843    1.3478    0.8539 H   0  0  0  0  0  0  0  0  0  0  0  0
   -1.2082    1.4618   -0.7735 H   0  0  0  0  0  0  0  0  0  0  0  0
   -1.5374    4.3903   -2.9269 C   0  0  0  0  0  0  0  0  0  0  0  0
   -2.3149    3.9695   -3.4633 H   0  0  0  0  0  0  0  0  0  0  0  0
   -0.7624    4.4533   -3.6078 H   0  0  0  0  0  0  0  0  0  0  0  0
   -1.8273    5.4037   -2.6495 H   0  0  0  0  0  0  0  0  0  0  0  0
   -1.0777    3.3286   -1.5355 S   0  0  0  0  0  0  0  0  0  0  0  0
   -2.6770    2.9748   -0.8463 C   0  0  0  0  0  0  0  0  0  0  0  0
   -3.3777    3.0224   -1.5637 H   0  0  0  0  0  0  0  0  0  0  0  0
   -2.6823    2.0548   -0.4457 H   0  0  0  0  0  0  0  0  0  0  0  0
   -2.8971    3.6422   -0.1307 H   0  0  0  0  0  0  0  0  0  0  0  0
  1  5  1  0
  5  8  1  0
  1  2  1  0
  1  3  1  0
  1  4  1  0
  5  6  1  0
  5  7  1  0
  8  9  1  0
  8 10  1  0
  8 11  1  0
 12 16  1  0
 16 17  1  0
 12 13  1  0
 12 14  1  0
 12 15  1  0
 17 18  1  0
 17 19  1  0
 17 20  1  0
M  CHG  1   8   1
M  END
>  <PDB_ID>  (1643) 
pdb5i3e

>  <RESIDUE_NAME>  (1643) 
LYS   MET

>  <FRAG_NAME>  (1643) 
ETAM   MSM

>  <FRAG_ATOM_NUM>  (1643) 
fragi: 11  fragj: 9

>  <atom.prop.CHAIN_ID>  (1643) 
A A A A A A A A A A A Z Z Z Z Z Z Z Z Z

>  <atom.prop.IS_HEAVY_ATOM>  (1643) 
1 0 0 0 1 0 0 1 0 0 0 1 0 0 0 1 1 0 0 0

>  <DIFUSE_FUNC_ATOM>  (1643) 
n/a

>  <FINAL_SINGLE_POINT_ENERGY>  (1643) 
0

>  <NONCOV_INTER_ENERGY_QM>  (1643) 
0

>  <FF_Energy>  (1643) 
28.88

>  <QM_Energy>  (1643) 
0.94

>  <source>  (1643) 
ETAM_MSM

>  <Index>  (1643) 
10463

$$$$
ETAM-pdb6ijc-A-LYS-554:MSM-pdb6ijc-A-MET-533
     RDKit          3D

 20 18  0  0  0  0  0  0  0  0999 V2000
    1.2601    0.8700   -0.0000 C   0  0  0  0  0  0  0  0  0  0  0  0
    1.2464    1.4362    0.8108 H   0  0  0  0  0  0  0  0  0  0  0  0
    1.2595    1.4180   -0.8226 H   0  0  0  0  0  0  0  0  0  0  0  0
    2.1502    0.2409    0.0146 H   0  0  0  0  0  0  0  0  0  0  0  0
    0.0000    0.0000    0.0000 C   0  0  0  0  0  0  0  0  0  0  0  0
    0.0129   -0.5861   -0.8159 H   0  0  0  0  0  0  0  0  0  0  0  0
    0.0125   -0.5863    0.8168 H   0  0  0  0  0  0  0  0  0  0  0  0
   -1.2601    0.8092   -0.0000 N   0  0  0  0  0  4  0  0  0  0  0  0
   -1.0865    1.6842   -0.4482 H   0  0  0  0  0  0  0  0  0  0  0  0
   -1.9690    0.3106   -0.4949 H   0  0  0  0  0  0  0  0  0  0  0  0
   -1.5503    0.9628    0.9428 H   0  0  0  0  0  0  0  0  0  0  0  0
   -0.1398    2.7563    4.4061 C   0  0  0  0  0  0  0  0  0  0  0  0
   -0.0255    1.7881    4.7922 H   0  0  0  0  0  0  0  0  0  0  0  0
   -0.5751    3.2672    5.2118 H   0  0  0  0  0  0  0  0  0  0  0  0
    0.8565    3.1697    4.2488 H   0  0  0  0  0  0  0  0  0  0  0  0
   -1.2697    2.7387    2.9907 S   0  0  0  0  0  0  0  0  0  0  0  0
   -1.6007    4.4651    2.6874 C   0  0  0  0  0  0  0  0  0  0  0  0
   -2.5357    4.5758    2.3437 H   0  0  0  0  0  0  0  0  0  0  0  0
   -1.4995    4.9843    3.5386 H   0  0  0  0  0  0  0  0  0  0  0  0
   -0.9561    4.8204    2.0067 H   0  0  0  0  0  0  0  0  0  0  0  0
  1  5  1  0
  5  8  1  0
  1  2  1  0
  1  3  1  0
  1  4  1  0
  5  6  1  0
  5  7  1  0
  8  9  1  0
  8 10  1  0
  8 11  1  0
 12 16  1  0
 16 17  1  0
 12 13  1  0
 12 14  1  0
 12 15  1  0
 17 18  1  0
 17 19  1  0
 17 20  1  0
M  CHG  1   8   1
M  END
>  <PDB_ID>  (1644) 
pdb6ijc

>  <RESIDUE_NAME>  (1644) 
LYS   MET

>  <FRAG_NAME>  (1644) 
ETAM   MSM

>  <FRAG_ATOM_NUM>  (1644) 
fragi: 11  fragj: 9

>  <atom.prop.CHAIN_ID>  (1644) 
A A A A A A A A A A A Z Z Z Z Z Z Z Z Z

>  <atom.prop.IS_HEAVY_ATOM>  (1644) 
1 0 0 0 1 0 0 1 0 0 0 1 0 0 0 1 1 0 0 0

>  <DIFUSE_FUNC_ATOM>  (1644) 
n/a

>  <FINAL_SINGLE_POINT_ENERGY>  (1644) 
0

>  <NONCOV_INTER_ENERGY_QM>  (1644) 
0

>  <FF_Energy>  (1644) 
-5.73

>  <QM_Energy>  (1644) 
-13.63

>  <source>  (1644) 
ETAM_MSM

>  <Index>  (1644) 
10464

$$$$
ETAM-pdb6ijc-B-LYS-554:MSM-pdb6ijc-B-MET-533
     RDKit          3D

 20 18  0  0  0  0  0  0  0  0999 V2000
    1.2539    0.8530    0.0000 C   0  0  0  0  0  0  0  0  0  0  0  0
    1.2047    1.4986    0.7471 H   0  0  0  0  0  0  0  0  0  0  0  0
    1.3305    1.3134   -0.8706 H   0  0  0  0  0  0  0  0  0  0  0  0
    2.1351    0.2271    0.1409 H   0  0  0  0  0  0  0  0  0  0  0  0
    0.0000    0.0000    0.0000 C   0  0  0  0  0  0  0  0  0  0  0  0
    0.0101   -0.5945   -0.8159 H   0  0  0  0  0  0  0  0  0  0  0  0
    0.0096   -0.5952    0.8161 H   0  0  0  0  0  0  0  0  0  0  0  0
   -1.2539    0.8001   -0.0000 N   0  0  0  0  0  4  0  0  0  0  0  0
   -1.2331    1.4500   -0.7590 H   0  0  0  0  0  0  0  0  0  0  0  0
   -2.0375    0.1885   -0.1043 H   0  0  0  0  0  0  0  0  0  0  0  0
   -1.3302    1.2976    0.8636 H   0  0  0  0  0  0  0  0  0  0  0  0
    0.1441    4.3451    3.5283 C   0  0  0  0  0  0  0  0  0  0  0  0
    0.0367    3.6458    4.2614 H   0  0  0  0  0  0  0  0  0  0  0  0
   -0.1272    5.2372    3.9384 H   0  0  0  0  0  0  0  0  0  0  0  0
    1.2019    4.4015    3.2716 H   0  0  0  0  0  0  0  0  0  0  0  0
   -0.8876    3.9471    2.0929 S   0  0  0  0  0  0  0  0  0  0  0  0
   -1.1867    5.5784    1.3896 C   0  0  0  0  0  0  0  0  0  0  0  0
   -1.4624    5.4810    0.4342 H   0  0  0  0  0  0  0  0  0  0  0  0
   -1.9135    6.0327    1.9042 H   0  0  0  0  0  0  0  0  0  0  0  0
   -0.3486    6.1204    1.4431 H   0  0  0  0  0  0  0  0  0  0  0  0
  1  5  1  0
  5  8  1  0
  1  2  1  0
  1  3  1  0
  1  4  1  0
  5  6  1  0
  5  7  1  0
  8  9  1  0
  8 10  1  0
  8 11  1  0
 12 16  1  0
 16 17  1  0
 12 13  1  0
 12 14  1  0
 12 15  1  0
 17 18  1  0
 17 19  1  0
 17 20  1  0
M  CHG  1   8   1
M  END
>  <PDB_ID>  (1645) 
pdb6ijc

>  <RESIDUE_NAME>  (1645) 
LYS   MET

>  <FRAG_NAME>  (1645) 
ETAM   MSM

>  <FRAG_ATOM_NUM>  (1645) 
fragi: 11  fragj: 9

>  <atom.prop.CHAIN_ID>  (1645) 
A A A A A A A A A A A Z Z Z Z Z Z Z Z Z

>  <atom.prop.IS_HEAVY_ATOM>  (1645) 
1 0 0 0 1 0 0 1 0 0 0 1 0 0 0 1 1 0 0 0

>  <DIFUSE_FUNC_ATOM>  (1645) 
n/a

>  <FINAL_SINGLE_POINT_ENERGY>  (1645) 
0

>  <NONCOV_INTER_ENERGY_QM>  (1645) 
0

>  <FF_Energy>  (1645) 
-5.2

>  <QM_Energy>  (1645) 
-11.98

>  <source>  (1645) 
ETAM_MSM

>  <Index>  (1645) 
10465

$$$$
ETAM-pdb5hu8-C-LYS-304:MSM-pdb5hu8-D-MET-59
     RDKit          3D

 20 18  0  0  0  0  0  0  0  0999 V2000
    1.2364    0.8802   -0.0000 C   0  0  0  0  0  0  0  0  0  0  0  0
    2.0376    0.3120    0.2259 H   0  0  0  0  0  0  0  0  0  0  0  0
    1.1341    1.5801    0.7167 H   0  0  0  0  0  0  0  0  0  0  0  0
    1.4381    1.3884   -0.9429 H   0  0  0  0  0  0  0  0  0  0  0  0
    0.0000    0.0000    0.0000 C   0  0  0  0  0  0  0  0  0  0  0  0
    0.0106   -0.5767   -0.8164 H   0  0  0  0  0  0  0  0  0  0  0  0
    0.0100   -0.5775    0.8164 H   0  0  0  0  0  0  0  0  0  0  0  0
   -1.2364    0.8271    0.0000 N   0  0  0  0  0  4  0  0  0  0  0  0
   -1.1608    1.5369   -0.6992 H   0  0  0  0  0  0  0  0  0  0  0  0
   -2.0249    0.2456   -0.1978 H   0  0  0  0  0  0  0  0  0  0  0  0
   -1.3516    1.2517    0.8974 H   0  0  0  0  0  0  0  0  0  0  0  0
   -2.3093    3.1138   -3.4452 C   0  0  0  0  0  0  0  0  0  0  0  0
   -1.6788    3.9002   -3.2705 H   0  0  0  0  0  0  0  0  0  0  0  0
   -2.9028    3.0414   -2.6143 H   0  0  0  0  0  0  0  0  0  0  0  0
   -2.9414    3.3656   -4.2967 H   0  0  0  0  0  0  0  0  0  0  0  0
   -1.3630    1.5767   -3.6913 S   0  0  0  0  0  0  0  0  0  0  0  0
   -0.0443    2.1503   -4.7360 C   0  0  0  0  0  0  0  0  0  0  0  0
    0.2716    3.0504   -4.4254 H   0  0  0  0  0  0  0  0  0  0  0  0
    0.7234    1.5055   -4.7037 H   0  0  0  0  0  0  0  0  0  0  0  0
   -0.3665    2.2264   -5.6832 H   0  0  0  0  0  0  0  0  0  0  0  0
  1  5  1  0
  5  8  1  0
  1  2  1  0
  1  3  1  0
  1  4  1  0
  5  6  1  0
  5  7  1  0
  8  9  1  0
  8 10  1  0
  8 11  1  0
 12 16  1  0
 16 17  1  0
 12 13  1  0
 12 14  1  0
 12 15  1  0
 17 18  1  0
 17 19  1  0
 17 20  1  0
M  CHG  1   8   1
M  END
>  <PDB_ID>  (1646) 
pdb5hu8

>  <RESIDUE_NAME>  (1646) 
LYS   MET

>  <FRAG_NAME>  (1646) 
ETAM   MSM

>  <FRAG_ATOM_NUM>  (1646) 
fragi: 11  fragj: 9

>  <atom.prop.CHAIN_ID>  (1646) 
A A A A A A A A A A A Z Z Z Z Z Z Z Z Z

>  <atom.prop.IS_HEAVY_ATOM>  (1646) 
1 0 0 0 1 0 0 1 0 0 0 1 0 0 0 1 1 0 0 0

>  <DIFUSE_FUNC_ATOM>  (1646) 
n/a

>  <FINAL_SINGLE_POINT_ENERGY>  (1646) 
0

>  <NONCOV_INTER_ENERGY_QM>  (1646) 
0

>  <FF_Energy>  (1646) 
-4.62

>  <QM_Energy>  (1646) 
-11.57

>  <source>  (1646) 
ETAM_MSM

>  <Index>  (1646) 
10469

$$$$
ETAM-pdb6ilr-B-LYS-279:MSM-pdb6ilr-B-MET-265
     RDKit          3D

 20 18  0  0  0  0  0  0  0  0999 V2000
    1.2323    0.8718    0.0000 C   0  0  0  0  0  0  0  0  0  0  0  0
    1.2153    1.4522    0.8157 H   0  0  0  0  0  0  0  0  0  0  0  0
    1.2148    1.4510   -0.8175 H   0  0  0  0  0  0  0  0  0  0  0  0
    2.1570    0.2945    0.0006 H   0  0  0  0  0  0  0  0  0  0  0  0
    0.0000    0.0000    0.0000 C   0  0  0  0  0  0  0  0  0  0  0  0
    0.0062   -0.5798   -0.8151 H   0  0  0  0  0  0  0  0  0  0  0  0
    0.0058   -0.5784    0.8171 H   0  0  0  0  0  0  0  0  0  0  0  0
   -1.2323    0.8287   -0.0000 N   0  0  0  0  0  4  0  0  0  0  0  0
   -2.0282    0.2426    0.1500 H   0  0  0  0  0  0  0  0  0  0  0  0
   -1.1766    1.5099    0.7307 H   0  0  0  0  0  0  0  0  0  0  0  0
   -1.3214    1.2931   -0.8819 H   0  0  0  0  0  0  0  0  0  0  0  0
    2.3139   -1.1657    4.5452 C   0  0  0  0  0  0  0  0  0  0  0  0
    1.7484   -0.3347    4.7764 H   0  0  0  0  0  0  0  0  0  0  0  0
    3.2252   -0.9944    4.9964 H   0  0  0  0  0  0  0  0  0  0  0  0
    1.8555   -2.0327    5.0207 H   0  0  0  0  0  0  0  0  0  0  0  0
    2.5012   -1.3378    2.7712 S   0  0  0  0  0  0  0  0  0  0  0  0
    3.1400    0.2797    2.3495 C   0  0  0  0  0  0  0  0  0  0  0  0
    2.7673    0.9631    2.9796 H   0  0  0  0  0  0  0  0  0  0  0  0
    4.1386    0.2762    2.4193 H   0  0  0  0  0  0  0  0  0  0  0  0
    2.8735    0.5132    1.4138 H   0  0  0  0  0  0  0  0  0  0  0  0
  1  5  1  0
  5  8  1  0
  1  2  1  0
  1  3  1  0
  1  4  1  0
  5  6  1  0
  5  7  1  0
  8  9  1  0
  8 10  1  0
  8 11  1  0
 12 16  1  0
 16 17  1  0
 12 13  1  0
 12 14  1  0
 12 15  1  0
 17 18  1  0
 17 19  1  0
 17 20  1  0
M  CHG  1   8   1
M  END
>  <PDB_ID>  (1647) 
pdb6ilr

>  <RESIDUE_NAME>  (1647) 
LYS   MET

>  <FRAG_NAME>  (1647) 
ETAM   MSM

>  <FRAG_ATOM_NUM>  (1647) 
fragi: 11  fragj: 9

>  <atom.prop.CHAIN_ID>  (1647) 
A A A A A A A A A A A Z Z Z Z Z Z Z Z Z

>  <atom.prop.IS_HEAVY_ATOM>  (1647) 
1 0 0 0 1 0 0 1 0 0 0 1 0 0 0 1 1 0 0 0

>  <DIFUSE_FUNC_ATOM>  (1647) 
n/a

>  <FINAL_SINGLE_POINT_ENERGY>  (1647) 
0

>  <NONCOV_INTER_ENERGY_QM>  (1647) 
0

>  <FF_Energy>  (1647) 
17.72

>  <QM_Energy>  (1647) 
1.41

>  <source>  (1647) 
ETAM_MSM

>  <Index>  (1647) 
10472

$$$$
ETAM-pdb6ijc-A-LYS-193:MSM-pdb6ijc-A-MET-175
     RDKit          3D

 20 18  0  0  0  0  0  0  0  0999 V2000
    1.2559    0.8625    0.0000 C   0  0  0  0  0  0  0  0  0  0  0  0
    1.2918    1.3715    0.8536 H   0  0  0  0  0  0  0  0  0  0  0  0
    1.2135    1.4864   -0.7733 H   0  0  0  0  0  0  0  0  0  0  0  0
    2.1607    0.2606   -0.0854 H   0  0  0  0  0  0  0  0  0  0  0  0
    0.0000    0.0000    0.0000 C   0  0  0  0  0  0  0  0  0  0  0  0
    0.0132   -0.5913   -0.8167 H   0  0  0  0  0  0  0  0  0  0  0  0
    0.0134   -0.5917    0.8165 H   0  0  0  0  0  0  0  0  0  0  0  0
   -1.2559    0.8009   -0.0000 N   0  0  0  0  0  4  0  0  0  0  0  0
   -1.1776    1.5389    0.6698 H   0  0  0  0  0  0  0  0  0  0  0  0
   -1.4017    1.1883   -0.9101 H   0  0  0  0  0  0  0  0  0  0  0  0
   -2.0248    0.2100    0.2404 H   0  0  0  0  0  0  0  0  0  0  0  0
   -4.5709    1.5644   -1.8100 C   0  0  0  0  0  0  0  0  0  0  0  0
   -4.8692    0.8773   -2.4815 H   0  0  0  0  0  0  0  0  0  0  0  0
   -3.6179    1.8146   -2.0109 H   0  0  0  0  0  0  0  0  0  0  0  0
   -5.2049    2.4477   -1.8856 H   0  0  0  0  0  0  0  0  0  0  0  0
   -4.7201    0.9232   -0.1366 S   0  0  0  0  0  0  0  0  0  0  0  0
   -4.2265    2.3624    0.8311 C   0  0  0  0  0  0  0  0  0  0  0  0
   -3.7952    3.0321    0.2289 H   0  0  0  0  0  0  0  0  0  0  0  0
   -5.0344    2.7657    1.2585 H   0  0  0  0  0  0  0  0  0  0  0  0
   -3.5787    2.0791    1.5373 H   0  0  0  0  0  0  0  0  0  0  0  0
  1  5  1  0
  5  8  1  0
  1  2  1  0
  1  3  1  0
  1  4  1  0
  5  6  1  0
  5  7  1  0
  8  9  1  0
  8 10  1  0
  8 11  1  0
 12 16  1  0
 16 17  1  0
 12 13  1  0
 12 14  1  0
 12 15  1  0
 17 18  1  0
 17 19  1  0
 17 20  1  0
M  CHG  1   8   1
M  END
>  <PDB_ID>  (1648) 
pdb6ijc

>  <RESIDUE_NAME>  (1648) 
LYS   MET

>  <FRAG_NAME>  (1648) 
ETAM   MSM

>  <FRAG_ATOM_NUM>  (1648) 
fragi: 11  fragj: 9

>  <atom.prop.CHAIN_ID>  (1648) 
A A A A A A A A A A A Z Z Z Z Z Z Z Z Z

>  <atom.prop.IS_HEAVY_ATOM>  (1648) 
1 0 0 0 1 0 0 1 0 0 0 1 0 0 0 1 1 0 0 0

>  <DIFUSE_FUNC_ATOM>  (1648) 
n/a

>  <FINAL_SINGLE_POINT_ENERGY>  (1648) 
0

>  <NONCOV_INTER_ENERGY_QM>  (1648) 
0

>  <FF_Energy>  (1648) 
-2.78

>  <QM_Energy>  (1648) 
-9.35

>  <source>  (1648) 
ETAM_MSM

>  <Index>  (1648) 
10475

$$$$
ETAM-pdb6ihd-B-LYS-83:MSM-pdb6ihd-B-MET-86
     RDKit          3D

 20 18  0  0  0  0  0  0  0  0999 V2000
    1.2378    0.8857   -0.0000 C   0  0  0  0  0  0  0  0  0  0  0  0
    2.0387    0.3081   -0.0560 H   0  0  0  0  0  0  0  0  0  0  0  0
    1.2399    1.4245    0.8292 H   0  0  0  0  0  0  0  0  0  0  0  0
    1.2177    1.5535   -0.8612 H   0  0  0  0  0  0  0  0  0  0  0  0
    0.0000    0.0000    0.0000 C   0  0  0  0  0  0  0  0  0  0  0  0
    0.0159   -0.5777   -0.8165 H   0  0  0  0  0  0  0  0  0  0  0  0
    0.0152   -0.5774    0.8166 H   0  0  0  0  0  0  0  0  0  0  0  0
   -1.2378    0.8195   -0.0000 N   0  0  0  0  0  4  0  0  0  0  0  0
   -1.2613    1.3886   -0.8229 H   0  0  0  0  0  0  0  0  0  0  0  0
   -2.0367    0.2174    0.0122 H   0  0  0  0  0  0  0  0  0  0  0  0
   -1.2502    1.4055    0.8103 H   0  0  0  0  0  0  0  0  0  0  0  0
   -2.1567   -0.6560   -4.5602 C   0  0  0  0  0  0  0  0  0  0  0  0
   -2.5445   -0.3794   -5.4748 H   0  0  0  0  0  0  0  0  0  0  0  0
   -2.4493   -1.6381   -4.4394 H   0  0  0  0  0  0  0  0  0  0  0  0
   -1.0692   -0.6282   -4.6272 H   0  0  0  0  0  0  0  0  0  0  0  0
   -2.8694    0.3833   -3.2324 S   0  0  0  0  0  0  0  0  0  0  0  0
   -4.6218    0.0351   -3.4141 C   0  0  0  0  0  0  0  0  0  0  0  0
   -5.1534    0.7605   -2.9761 H   0  0  0  0  0  0  0  0  0  0  0  0
   -4.8538   -0.0081   -4.3860 H   0  0  0  0  0  0  0  0  0  0  0  0
   -4.8345   -0.8414   -2.9811 H   0  0  0  0  0  0  0  0  0  0  0  0
  1  5  1  0
  5  8  1  0
  1  2  1  0
  1  3  1  0
  1  4  1  0
  5  6  1  0
  5  7  1  0
  8  9  1  0
  8 10  1  0
  8 11  1  0
 12 16  1  0
 16 17  1  0
 12 13  1  0
 12 14  1  0
 12 15  1  0
 17 18  1  0
 17 19  1  0
 17 20  1  0
M  CHG  1   8   1
M  END
>  <PDB_ID>  (1649) 
pdb6ihd

>  <RESIDUE_NAME>  (1649) 
LYS   MET

>  <FRAG_NAME>  (1649) 
ETAM   MSM

>  <FRAG_ATOM_NUM>  (1649) 
fragi: 11  fragj: 9

>  <atom.prop.CHAIN_ID>  (1649) 
A A A A A A A A A A A Z Z Z Z Z Z Z Z Z

>  <atom.prop.IS_HEAVY_ATOM>  (1649) 
1 0 0 0 1 0 0 1 0 0 0 1 0 0 0 1 1 0 0 0

>  <DIFUSE_FUNC_ATOM>  (1649) 
n/a

>  <FINAL_SINGLE_POINT_ENERGY>  (1649) 
0

>  <NONCOV_INTER_ENERGY_QM>  (1649) 
0

>  <FF_Energy>  (1649) 
-5.2

>  <QM_Energy>  (1649) 
-12.46

>  <source>  (1649) 
ETAM_MSM

>  <Index>  (1649) 
10476

$$$$
ETAM-pdb5i7p-A-LYS-52:MSM-pdb5i7p-A-MET-49
     RDKit          3D

 20 18  0  0  0  0  0  0  0  0999 V2000
    1.2398    0.8724   -0.0000 C   0  0  0  0  0  0  0  0  0  0  0  0
    1.4289    1.1287    0.9161 H   0  0  0  0  0  0  0  0  0  0  0  0
    1.0558    1.6595   -0.5361 H   0  0  0  0  0  0  0  0  0  0  0  0
    2.1051    0.3540   -0.4130 H   0  0  0  0  0  0  0  0  0  0  0  0
    0.0000    0.0000    0.0000 C   0  0  0  0  0  0  0  0  0  0  0  0
   -0.0021   -0.5551   -0.7962 H   0  0  0  0  0  0  0  0  0  0  0  0
   -0.0022   -0.5544    0.7970 H   0  0  0  0  0  0  0  0  0  0  0  0
   -1.2398    0.8232    0.0000 N   0  0  0  0  0  4  0  0  0  0  0  0
   -1.9561    0.2943   -0.0006 H   0  0  0  0  0  0  0  0  0  0  0  0
   -1.2620    1.3402    0.7243 H   0  0  0  0  0  0  0  0  0  0  0  0
   -1.2615    1.3396   -0.7247 H   0  0  0  0  0  0  0  0  0  0  0  0
    2.6235   -2.3992   -3.3022 C   0  0  0  0  0  0  0  0  0  0  0  0
    2.6256   -1.5039   -3.6755 H   0  0  0  0  0  0  0  0  0  0  0  0
    2.6070   -3.0562   -4.0156 H   0  0  0  0  0  0  0  0  0  0  0  0
    3.5273   -2.5400   -2.7092 H   0  0  0  0  0  0  0  0  0  0  0  0
    1.1183   -2.5936   -2.3289 S   0  0  0  0  0  0  0  0  0  0  0  0
    1.3103   -4.2535   -1.6804 C   0  0  0  0  0  0  0  0  0  0  0  0
    0.5404   -4.4681   -1.1302 H   0  0  0  0  0  0  0  0  0  0  0  0
    1.3712   -4.8766   -2.4209 H   0  0  0  0  0  0  0  0  0  0  0  0
    2.1199   -4.2922   -1.1472 H   0  0  0  0  0  0  0  0  0  0  0  0
  1  5  1  0
  5  8  1  0
  1  2  1  0
  1  3  1  0
  1  4  1  0
  5  6  1  0
  5  7  1  0
  8  9  1  0
  8 10  1  0
  8 11  1  0
 12 16  1  0
 16 17  1  0
 12 13  1  0
 12 14  1  0
 12 15  1  0
 17 18  1  0
 17 19  1  0
 17 20  1  0
M  CHG  1   8   1
M  END
>  <PDB_ID>  (1650) 
pdb5i7p

>  <RESIDUE_NAME>  (1650) 
LYS   MET

>  <FRAG_NAME>  (1650) 
ETAM   MSM

>  <FRAG_ATOM_NUM>  (1650) 
fragi: 11  fragj: 9

>  <atom.prop.CHAIN_ID>  (1650) 
A A A A A A A A A A A Z Z Z Z Z Z Z Z Z

>  <atom.prop.IS_HEAVY_ATOM>  (1650) 
1 0 0 0 1 0 0 1 0 0 0 1 0 0 0 1 1 0 0 0

>  <DIFUSE_FUNC_ATOM>  (1650) 
n/a

>  <FINAL_SINGLE_POINT_ENERGY>  (1650) 
0

>  <NONCOV_INTER_ENERGY_QM>  (1650) 
0

>  <FF_Energy>  (1650) 
-3.53

>  <QM_Energy>  (1650) 
-8.57

>  <source>  (1650) 
ETAM_MSM

>  <Index>  (1650) 
10477

$$$$
ETAM-pdb5i5n-A-LYS-88:MSM-pdb5i5n-A-MET-125
     RDKit          3D

 20 18  0  0  0  0  0  0  0  0999 V2000
    1.2312    0.8656    0.0000 C   0  0  0  0  0  0  0  0  0  0  0  0
    2.0149    0.3196    0.2913 H   0  0  0  0  0  0  0  0  0  0  0  0
    1.0957    1.6254    0.6337 H   0  0  0  0  0  0  0  0  0  0  0  0
    1.4473    1.2755   -0.9866 H   0  0  0  0  0  0  0  0  0  0  0  0
    0.0000    0.0000    0.0000 C   0  0  0  0  0  0  0  0  0  0  0  0
   -0.0031   -0.5751   -0.8163 H   0  0  0  0  0  0  0  0  0  0  0  0
   -0.0033   -0.5760    0.8167 H   0  0  0  0  0  0  0  0  0  0  0  0
   -1.2312    0.8462   -0.0000 N   0  0  0  0  0  4  0  0  0  0  0  0
   -0.9731    1.8028   -0.1242 H   0  0  0  0  0  0  0  0  0  0  0  0
   -1.8277    0.5586   -0.7475 H   0  0  0  0  0  0  0  0  0  0  0  0
   -1.7056    0.7359    0.8718 H   0  0  0  0  0  0  0  0  0  0  0  0
   -2.3301   -2.4652   -2.8579 C   0  0  0  0  0  0  0  0  0  0  0  0
   -2.8808   -2.3803   -3.7782 H   0  0  0  0  0  0  0  0  0  0  0  0
   -3.0612   -2.0447   -2.1898 H   0  0  0  0  0  0  0  0  0  0  0  0
   -2.3326   -3.5318   -2.6337 H   0  0  0  0  0  0  0  0  0  0  0  0
   -0.9026   -1.6812   -2.8615 S   0  0  0  0  0  0  0  0  0  0  0  0
   -0.1335   -2.4363   -4.2919 C   0  0  0  0  0  0  0  0  0  0  0  0
    0.4246   -3.2149   -4.0014 H   0  0  0  0  0  0  0  0  0  0  0  0
   -0.8407   -2.7530   -4.9259 H   0  0  0  0  0  0  0  0  0  0  0  0
    0.4493   -1.7653   -4.7536 H   0  0  0  0  0  0  0  0  0  0  0  0
  1  5  1  0
  5  8  1  0
  1  2  1  0
  1  3  1  0
  1  4  1  0
  5  6  1  0
  5  7  1  0
  8  9  1  0
  8 10  1  0
  8 11  1  0
 12 16  1  0
 16 17  1  0
 12 13  1  0
 12 14  1  0
 12 15  1  0
 17 18  1  0
 17 19  1  0
 17 20  1  0
M  CHG  1   8   1
M  END
>  <PDB_ID>  (1651) 
pdb5i5n

>  <RESIDUE_NAME>  (1651) 
LYS   MET

>  <FRAG_NAME>  (1651) 
ETAM   MSM

>  <FRAG_ATOM_NUM>  (1651) 
fragi: 11  fragj: 9

>  <atom.prop.CHAIN_ID>  (1651) 
A A A A A A A A A A A Z Z Z Z Z Z Z Z Z

>  <atom.prop.IS_HEAVY_ATOM>  (1651) 
1 0 0 0 1 0 0 1 0 0 0 1 0 0 0 1 1 0 0 0

>  <DIFUSE_FUNC_ATOM>  (1651) 
n/a

>  <FINAL_SINGLE_POINT_ENERGY>  (1651) 
0

>  <NONCOV_INTER_ENERGY_QM>  (1651) 
0

>  <FF_Energy>  (1651) 
-2.26

>  <QM_Energy>  (1651) 
-9.3

>  <source>  (1651) 
ETAM_MSM

>  <Index>  (1651) 
10478

$$$$
ETAM-pdb5i5n-B-LYS-88:MSM-pdb5i5n-B-MET-125
     RDKit          3D

 20 18  0  0  0  0  0  0  0  0999 V2000
    1.2312    0.8656   -0.0000 C   0  0  0  0  0  0  0  0  0  0  0  0
    2.0146    0.3189    0.2901 H   0  0  0  0  0  0  0  0  0  0  0  0
    1.0963    1.6252    0.6345 H   0  0  0  0  0  0  0  0  0  0  0  0
    1.4470    1.2761   -0.9864 H   0  0  0  0  0  0  0  0  0  0  0  0
    0.0000    0.0000    0.0000 C   0  0  0  0  0  0  0  0  0  0  0  0
   -0.0031   -0.5751   -0.8163 H   0  0  0  0  0  0  0  0  0  0  0  0
   -0.0033   -0.5760    0.8167 H   0  0  0  0  0  0  0  0  0  0  0  0
   -1.2312    0.8462   -0.0000 N   0  0  0  0  0  4  0  0  0  0  0  0
   -1.1678    1.5182   -0.7357 H   0  0  0  0  0  0  0  0  0  0  0  0
   -2.0304    0.2643   -0.1428 H   0  0  0  0  0  0  0  0  0  0  0  0
   -1.3083    1.3147    0.8786 H   0  0  0  0  0  0  0  0  0  0  0  0
   -2.3295   -2.4654   -2.8571 C   0  0  0  0  0  0  0  0  0  0  0  0
   -2.8809   -2.3810   -3.7770 H   0  0  0  0  0  0  0  0  0  0  0  0
   -3.0609   -2.0462   -2.1890 H   0  0  0  0  0  0  0  0  0  0  0  0
   -2.3322   -3.5321   -2.6331 H   0  0  0  0  0  0  0  0  0  0  0  0
   -0.9027   -1.6819   -2.8603 S   0  0  0  0  0  0  0  0  0  0  0  0
   -0.1338   -2.4376   -4.2919 C   0  0  0  0  0  0  0  0  0  0  0  0
    0.2512   -3.3256   -4.0360 H   0  0  0  0  0  0  0  0  0  0  0  0
   -0.8186   -2.5666   -5.0110 H   0  0  0  0  0  0  0  0  0  0  0  0
    0.5975   -1.8448   -4.6321 H   0  0  0  0  0  0  0  0  0  0  0  0
  1  5  1  0
  5  8  1  0
  1  2  1  0
  1  3  1  0
  1  4  1  0
  5  6  1  0
  5  7  1  0
  8  9  1  0
  8 10  1  0
  8 11  1  0
 12 16  1  0
 16 17  1  0
 12 13  1  0
 12 14  1  0
 12 15  1  0
 17 18  1  0
 17 19  1  0
 17 20  1  0
M  CHG  1   8   1
M  END
>  <PDB_ID>  (1652) 
pdb5i5n

>  <RESIDUE_NAME>  (1652) 
LYS   MET

>  <FRAG_NAME>  (1652) 
ETAM   MSM

>  <FRAG_ATOM_NUM>  (1652) 
fragi: 11  fragj: 9

>  <atom.prop.CHAIN_ID>  (1652) 
A A A A A A A A A A A Z Z Z Z Z Z Z Z Z

>  <atom.prop.IS_HEAVY_ATOM>  (1652) 
1 0 0 0 1 0 0 1 0 0 0 1 0 0 0 1 1 0 0 0

>  <DIFUSE_FUNC_ATOM>  (1652) 
n/a

>  <FINAL_SINGLE_POINT_ENERGY>  (1652) 
0

>  <NONCOV_INTER_ENERGY_QM>  (1652) 
0

>  <FF_Energy>  (1652) 
-2.14

>  <QM_Energy>  (1652) 
-8.73

>  <source>  (1652) 
ETAM_MSM

>  <Index>  (1652) 
10483

$$$$
ETAM-pdb5i5i-A-LYS-334:MSM-pdb5i5i-B-MET-618
     RDKit          3D

 20 18  0  0  0  0  0  0  0  0999 V2000
    1.2517    0.8662   -0.0000 C   0  0  0  0  0  0  0  0  0  0  0  0
    1.5321    1.0231    0.9408 H   0  0  0  0  0  0  0  0  0  0  0  0
    1.0432    1.7283   -0.4481 H   0  0  0  0  0  0  0  0  0  0  0  0
    2.0743    0.3875   -0.5314 H   0  0  0  0  0  0  0  0  0  0  0  0
    0.0000    0.0000    0.0000 C   0  0  0  0  0  0  0  0  0  0  0  0
    0.0105   -0.5871   -0.8161 H   0  0  0  0  0  0  0  0  0  0  0  0
    0.0106   -0.5870    0.8162 H   0  0  0  0  0  0  0  0  0  0  0  0
   -1.2517    0.8116    0.0000 N   0  0  0  0  0  4  0  0  0  0  0  0
   -2.0405    0.2012    0.0683 H   0  0  0  0  0  0  0  0  0  0  0  0
   -1.2406    1.4351    0.7811 H   0  0  0  0  0  0  0  0  0  0  0  0
   -1.3045    1.3359   -0.8490 H   0  0  0  0  0  0  0  0  0  0  0  0
   -1.0445   -0.3859    5.3731 C   0  0  0  0  0  0  0  0  0  0  0  0
   -1.1411    0.6358    5.4257 H   0  0  0  0  0  0  0  0  0  0  0  0
   -0.2221   -0.6085    5.9469 H   0  0  0  0  0  0  0  0  0  0  0  0
   -1.9195   -0.8345    5.8435 H   0  0  0  0  0  0  0  0  0  0  0  0
   -0.7935   -0.9177    3.6600 S   0  0  0  0  0  0  0  0  0  0  0  0
    0.0461   -2.4972    3.8565 C   0  0  0  0  0  0  0  0  0  0  0  0
    0.6889   -2.6270    3.1025 H   0  0  0  0  0  0  0  0  0  0  0  0
    0.5422   -2.5034    4.7244 H   0  0  0  0  0  0  0  0  0  0  0  0
   -0.6289   -3.2345    3.8517 H   0  0  0  0  0  0  0  0  0  0  0  0
  1  5  1  0
  5  8  1  0
  1  2  1  0
  1  3  1  0
  1  4  1  0
  5  6  1  0
  5  7  1  0
  8  9  1  0
  8 10  1  0
  8 11  1  0
 12 16  1  0
 16 17  1  0
 12 13  1  0
 12 14  1  0
 12 15  1  0
 17 18  1  0
 17 19  1  0
 17 20  1  0
M  CHG  1   8   1
M  END
>  <PDB_ID>  (1653) 
pdb5i5i

>  <RESIDUE_NAME>  (1653) 
LYS   MET

>  <FRAG_NAME>  (1653) 
ETAM   MSM

>  <FRAG_ATOM_NUM>  (1653) 
fragi: 11  fragj: 9

>  <atom.prop.CHAIN_ID>  (1653) 
A A A A A A A A A A A Z Z Z Z Z Z Z Z Z

>  <atom.prop.IS_HEAVY_ATOM>  (1653) 
1 0 0 0 1 0 0 1 0 0 0 1 0 0 0 1 1 0 0 0

>  <DIFUSE_FUNC_ATOM>  (1653) 
n/a

>  <FINAL_SINGLE_POINT_ENERGY>  (1653) 
0

>  <NONCOV_INTER_ENERGY_QM>  (1653) 
0

>  <FF_Energy>  (1653) 
-4.65

>  <QM_Energy>  (1653) 
-9.85

>  <source>  (1653) 
ETAM_MSM

>  <Index>  (1653) 
10485

$$$$
ETAM-pdb6ijc-B-LYS-193:MSM-pdb6ijc-B-MET-175
     RDKit          3D

 20 18  0  0  0  0  0  0  0  0999 V2000
    1.2517    0.8346   -0.0000 C   0  0  0  0  0  0  0  0  0  0  0  0
    1.1990    1.4974    0.7396 H   0  0  0  0  0  0  0  0  0  0  0  0
    1.3308    1.2981   -0.8759 H   0  0  0  0  0  0  0  0  0  0  0  0
    2.1333    0.2114    0.1497 H   0  0  0  0  0  0  0  0  0  0  0  0
    0.0000    0.0000    0.0000 C   0  0  0  0  0  0  0  0  0  0  0  0
   -0.0074   -0.5933   -0.8161 H   0  0  0  0  0  0  0  0  0  0  0  0
   -0.0075   -0.5935    0.8163 H   0  0  0  0  0  0  0  0  0  0  0  0
   -1.2517    0.8243   -0.0000 N   0  0  0  0  0  4  0  0  0  0  0  0
   -1.7053    0.7285    0.8843 H   0  0  0  0  0  0  0  0  0  0  0  0
   -1.0126    1.7801   -0.1571 H   0  0  0  0  0  0  0  0  0  0  0  0
   -1.8548    0.5021   -0.7267 H   0  0  0  0  0  0  0  0  0  0  0  0
   -5.0594    2.3424   -1.9093 C   0  0  0  0  0  0  0  0  0  0  0  0
   -6.0402    2.6118   -1.9081 H   0  0  0  0  0  0  0  0  0  0  0  0
   -4.8580    1.9709   -2.8337 H   0  0  0  0  0  0  0  0  0  0  0  0
   -4.4476    3.2287   -1.7411 H   0  0  0  0  0  0  0  0  0  0  0  0
   -4.7422    1.0947   -0.6407 S   0  0  0  0  0  0  0  0  0  0  0  0
   -4.8199    2.1110    0.8308 C   0  0  0  0  0  0  0  0  0  0  0  0
   -3.9085    2.4660    1.0427 H   0  0  0  0  0  0  0  0  0  0  0  0
   -5.4463    2.8773    0.6773 H   0  0  0  0  0  0  0  0  0  0  0  0
   -5.1491    1.5629    1.6018 H   0  0  0  0  0  0  0  0  0  0  0  0
  1  5  1  0
  5  8  1  0
  1  2  1  0
  1  3  1  0
  1  4  1  0
  5  6  1  0
  5  7  1  0
  8  9  1  0
  8 10  1  0
  8 11  1  0
 12 16  1  0
 16 17  1  0
 12 13  1  0
 12 14  1  0
 12 15  1  0
 17 18  1  0
 17 19  1  0
 17 20  1  0
M  CHG  1   8   1
M  END
>  <PDB_ID>  (1654) 
pdb6ijc

>  <RESIDUE_NAME>  (1654) 
LYS   MET

>  <FRAG_NAME>  (1654) 
ETAM   MSM

>  <FRAG_ATOM_NUM>  (1654) 
fragi: 11  fragj: 9

>  <atom.prop.CHAIN_ID>  (1654) 
A A A A A A A A A A A Z Z Z Z Z Z Z Z Z

>  <atom.prop.IS_HEAVY_ATOM>  (1654) 
1 0 0 0 1 0 0 1 0 0 0 1 0 0 0 1 1 0 0 0

>  <DIFUSE_FUNC_ATOM>  (1654) 
n/a

>  <FINAL_SINGLE_POINT_ENERGY>  (1654) 
0

>  <NONCOV_INTER_ENERGY_QM>  (1654) 
0

>  <FF_Energy>  (1654) 
-3.87

>  <QM_Energy>  (1654) 
-10.84

>  <source>  (1654) 
ETAM_MSM

>  <Index>  (1654) 
10494

$$$$
ETAM-pdb6is5-B-LYS-509:MSM-pdb6is5-B-MET-538
     RDKit          3D

 20 18  0  0  0  0  0  0  0  0999 V2000
    1.2490    0.8718   -0.0000 C   0  0  0  0  0  0  0  0  0  0  0  0
    1.2570    1.4102    0.8356 H   0  0  0  0  0  0  0  0  0  0  0  0
    1.2184    1.4648   -0.7969 H   0  0  0  0  0  0  0  0  0  0  0  0
    2.1532    0.2643   -0.0406 H   0  0  0  0  0  0  0  0  0  0  0  0
    0.0000    0.0000    0.0000 C   0  0  0  0  0  0  0  0  0  0  0  0
    0.0109   -0.5829   -0.8165 H   0  0  0  0  0  0  0  0  0  0  0  0
    0.0100   -0.5831    0.8160 H   0  0  0  0  0  0  0  0  0  0  0  0
   -1.2490    0.8173    0.0000 N   0  0  0  0  0  4  0  0  0  0  0  0
   -1.9588    0.3332   -0.5095 H   0  0  0  0  0  0  0  0  0  0  0  0
   -1.5488    0.9600    0.9425 H   0  0  0  0  0  0  0  0  0  0  0  0
   -1.0657    1.6989   -0.4330 H   0  0  0  0  0  0  0  0  0  0  0  0
   -0.7259    5.4233    0.4595 C   0  0  0  0  0  0  0  0  0  0  0  0
   -0.3370    6.2631    0.9054 H   0  0  0  0  0  0  0  0  0  0  0  0
   -1.7443    5.5602    0.4700 H   0  0  0  0  0  0  0  0  0  0  0  0
   -0.3910    5.3973   -0.5774 H   0  0  0  0  0  0  0  0  0  0  0  0
   -0.2732    3.9434    1.3836 S   0  0  0  0  0  0  0  0  0  0  0  0
    0.8360    4.6422    2.6034 C   0  0  0  0  0  0  0  0  0  0  0  0
    0.5286    4.3882    3.5213 H   0  0  0  0  0  0  0  0  0  0  0  0
    1.7623    4.2919    2.4556 H   0  0  0  0  0  0  0  0  0  0  0  0
    0.8414    5.6395    2.5199 H   0  0  0  0  0  0  0  0  0  0  0  0
  1  5  1  0
  5  8  1  0
  1  2  1  0
  1  3  1  0
  1  4  1  0
  5  6  1  0
  5  7  1  0
  8  9  1  0
  8 10  1  0
  8 11  1  0
 12 16  1  0
 16 17  1  0
 12 13  1  0
 12 14  1  0
 12 15  1  0
 17 18  1  0
 17 19  1  0
 17 20  1  0
M  CHG  1   8   1
M  END
>  <PDB_ID>  (1655) 
pdb6is5

>  <RESIDUE_NAME>  (1655) 
LYS   MET

>  <FRAG_NAME>  (1655) 
ETAM   MSM

>  <FRAG_ATOM_NUM>  (1655) 
fragi: 11  fragj: 9

>  <atom.prop.CHAIN_ID>  (1655) 
A A A A A A A A A A A Z Z Z Z Z Z Z Z Z

>  <atom.prop.IS_HEAVY_ATOM>  (1655) 
1 0 0 0 1 0 0 1 0 0 0 1 0 0 0 1 1 0 0 0

>  <DIFUSE_FUNC_ATOM>  (1655) 
n/a

>  <FINAL_SINGLE_POINT_ENERGY>  (1655) 
0

>  <NONCOV_INTER_ENERGY_QM>  (1655) 
0

>  <FF_Energy>  (1655) 
-5.7

>  <QM_Energy>  (1655) 
-11.93

>  <source>  (1655) 
ETAM_MSM

>  <Index>  (1655) 
10503

$$$$
ETAM-pdb5ig8-A-LYS-171:MSM-pdb5ig8-A-MET-208
     RDKit          3D

 20 18  0  0  0  0  0  0  0  0999 V2000
    1.2740    0.8404    0.0000 C   0  0  0  0  0  0  0  0  0  0  0  0
    1.3085    1.3655    0.8371 H   0  0  0  0  0  0  0  0  0  0  0  0
    1.2662    1.4282   -0.7948 H   0  0  0  0  0  0  0  0  0  0  0  0
    2.1537    0.1986   -0.0465 H   0  0  0  0  0  0  0  0  0  0  0  0
    0.0000    0.0000    0.0000 C   0  0  0  0  0  0  0  0  0  0  0  0
    0.0075   -0.6015   -0.8163 H   0  0  0  0  0  0  0  0  0  0  0  0
    0.0072   -0.6019    0.8160 H   0  0  0  0  0  0  0  0  0  0  0  0
   -1.2740    0.7924   -0.0000 N   0  0  0  0  0  4  0  0  0  0  0  0
   -1.5767    0.9221    0.9413 H   0  0  0  0  0  0  0  0  0  0  0  0
   -1.1064    1.6780   -0.4274 H   0  0  0  0  0  0  0  0  0  0  0  0
   -1.9678    0.2933   -0.5137 H   0  0  0  0  0  0  0  0  0  0  0  0
   -2.3977   -1.4856    2.0045 C   0  0  0  0  0  0  0  0  0  0  0  0
   -3.0841   -1.3424    2.7680 H   0  0  0  0  0  0  0  0  0  0  0  0
   -1.9463   -0.5581    1.8970 H   0  0  0  0  0  0  0  0  0  0  0  0
   -1.6419   -2.1835    2.3648 H   0  0  0  0  0  0  0  0  0  0  0  0
   -3.2300   -1.9728    0.4785 S   0  0  0  0  0  0  0  0  0  0  0  0
   -4.7092   -0.9685    0.5985 C   0  0  0  0  0  0  0  0  0  0  0  0
   -5.4598   -1.5201    0.9655 H   0  0  0  0  0  0  0  0  0  0  0  0
   -4.5393   -0.1919    1.2075 H   0  0  0  0  0  0  0  0  0  0  0  0
   -4.9595   -0.6296   -0.3097 H   0  0  0  0  0  0  0  0  0  0  0  0
  1  5  1  0
  5  8  1  0
  1  2  1  0
  1  3  1  0
  1  4  1  0
  5  6  1  0
  5  7  1  0
  8  9  1  0
  8 10  1  0
  8 11  1  0
 12 16  1  0
 16 17  1  0
 12 13  1  0
 12 14  1  0
 12 15  1  0
 17 18  1  0
 17 19  1  0
 17 20  1  0
M  CHG  1   8   1
M  END
>  <PDB_ID>  (1656) 
pdb5ig8

>  <RESIDUE_NAME>  (1656) 
LYS   MET

>  <FRAG_NAME>  (1656) 
ETAM   MSM

>  <FRAG_ATOM_NUM>  (1656) 
fragi: 11  fragj: 9

>  <atom.prop.CHAIN_ID>  (1656) 
A A A A A A A A A A A Z Z Z Z Z Z Z Z Z

>  <atom.prop.IS_HEAVY_ATOM>  (1656) 
1 0 0 0 1 0 0 1 0 0 0 1 0 0 0 1 1 0 0 0

>  <DIFUSE_FUNC_ATOM>  (1656) 
n/a

>  <FINAL_SINGLE_POINT_ENERGY>  (1656) 
0

>  <NONCOV_INTER_ENERGY_QM>  (1656) 
0

>  <FF_Energy>  (1656) 
-0.45

>  <QM_Energy>  (1656) 
-8.6

>  <source>  (1656) 
ETAM_MSM

>  <Index>  (1656) 
10505

$$$$
ETAM-pdb5iip-C-GLU-252:MSM-pdb5iip-C-MET-255
     RDKit          3D

 20 18  0  0  0  0  0  0  0  0999 V2000
    1.2132    0.9052   -0.0000 C   0  0  0  0  0  0  0  0  0  0  0  0
    1.6134    0.8820    0.9117 H   0  0  0  0  0  0  0  0  0  0  0  0
    1.8614    0.5511   -0.6675 H   0  0  0  0  0  0  0  0  0  0  0  0
    1.0383    1.9523   -0.2470 H   0  0  0  0  0  0  0  0  0  0  0  0
    0.0000    0.0000    0.0000 C   0  0  0  0  0  0  0  0  0  0  0  0
    0.0246   -0.5792   -0.8003 H   0  0  0  0  0  0  0  0  0  0  0  0
   -0.0467   -0.6107    0.9016 H   0  0  0  0  0  0  0  0  0  0  0  0
   -1.2132    0.8007    0.0000 N   0  0  0  0  0  4  0  0  0  0  0  0
   -1.0147    1.7283   -0.3254 H   0  0  0  0  0  0  0  0  0  0  0  0
   -1.9000    0.3878   -0.6027 H   0  0  0  0  0  0  0  0  0  0  0  0
   -1.5893    0.8568    0.9281 H   0  0  0  0  0  0  0  0  0  0  0  0
   -3.4993   -1.7940   -0.9897 C   0  0  0  0  0  0  0  0  0  0  0  0
   -2.8558   -1.8194   -0.1980 H   0  0  0  0  0  0  0  0  0  0  0  0
   -3.9693   -2.7001   -1.0026 H   0  0  0  0  0  0  0  0  0  0  0  0
   -4.2393   -1.0119   -0.8199 H   0  0  0  0  0  0  0  0  0  0  0  0
   -2.6524   -1.4896   -2.4952 S   0  0  0  0  0  0  0  0  0  0  0  0
   -1.9602   -3.0613   -2.8103 C   0  0  0  0  0  0  0  0  0  0  0  0
   -2.6839   -3.7453   -2.9729 H   0  0  0  0  0  0  0  0  0  0  0  0
   -1.3654   -3.0340   -3.6251 H   0  0  0  0  0  0  0  0  0  0  0  0
   -1.4048   -3.3721   -2.0271 H   0  0  0  0  0  0  0  0  0  0  0  0
  1  5  1  0
  5  8  1  0
  1  2  1  0
  1  3  1  0
  1  4  1  0
  5  6  1  0
  5  7  1  0
  8  9  1  0
  8 10  1  0
  8 11  1  0
 12 16  1  0
 16 17  1  0
 12 13  1  0
 12 14  1  0
 12 15  1  0
 17 18  1  0
 17 19  1  0
 17 20  1  0
M  CHG  1   8   1
M  END
>  <PDB_ID>  (1657) 
pdb5iip

>  <RESIDUE_NAME>  (1657) 
GLU   MET

>  <FRAG_NAME>  (1657) 
ETAM   MSM

>  <FRAG_ATOM_NUM>  (1657) 
fragi: 11  fragj: 9

>  <atom.prop.CHAIN_ID>  (1657) 
A A A A A A A A A A A Z Z Z Z Z Z Z Z Z

>  <atom.prop.IS_HEAVY_ATOM>  (1657) 
1 0 0 0 1 0 0 1 0 0 0 1 0 0 0 1 1 0 0 0

>  <DIFUSE_FUNC_ATOM>  (1657) 
n/a

>  <FINAL_SINGLE_POINT_ENERGY>  (1657) 
0

>  <NONCOV_INTER_ENERGY_QM>  (1657) 
0

>  <FF_Energy>  (1657) 
-4.18

>  <QM_Energy>  (1657) 
-10.9

>  <source>  (1657) 
ETAM_MSM

>  <Index>  (1657) 
10522

$$$$
ETAM-pdb5ijz-C-LYS-92:MSM-pdb5ijz-C-MET-383
     RDKit          3D

 20 18  0  0  0  0  0  0  0  0999 V2000
    1.2662    0.8534   -0.0000 C   0  0  0  0  0  0  0  0  0  0  0  0
    1.1982    1.5092   -0.7683 H   0  0  0  0  0  0  0  0  0  0  0  0
    2.0512    0.2432   -0.1871 H   0  0  0  0  0  0  0  0  0  0  0  0
    1.4565    1.4052    0.9206 H   0  0  0  0  0  0  0  0  0  0  0  0
    0.0000    0.0000    0.0000 C   0  0  0  0  0  0  0  0  0  0  0  0
    0.0029   -0.5891   -0.8160 H   0  0  0  0  0  0  0  0  0  0  0  0
    0.0029   -0.5890    0.8158 H   0  0  0  0  0  0  0  0  0  0  0  0
   -1.2662    0.8174   -0.0000 N   0  0  0  0  0  4  0  0  0  0  0  0
   -1.8935    0.4390    0.6751 H   0  0  0  0  0  0  0  0  0  0  0  0
   -1.0410    1.7603    0.2318 H   0  0  0  0  0  0  0  0  0  0  0  0
   -1.6750    0.7773   -0.9076 H   0  0  0  0  0  0  0  0  0  0  0  0
    1.5138   -3.4305   -2.4535 C   0  0  0  0  0  0  0  0  0  0  0  0
    1.3542   -3.1304   -3.4305 H   0  0  0  0  0  0  0  0  0  0  0  0
    0.5621   -3.6013   -2.0831 H   0  0  0  0  0  0  0  0  0  0  0  0
    2.0616   -4.3727   -2.4616 H   0  0  0  0  0  0  0  0  0  0  0  0
    2.3262   -2.1352   -1.5231 S   0  0  0  0  0  0  0  0  0  0  0  0
    3.9089   -1.9002   -2.3082 C   0  0  0  0  0  0  0  0  0  0  0  0
    3.7926   -1.3866   -3.1619 H   0  0  0  0  0  0  0  0  0  0  0  0
    4.5185   -1.3896   -1.6977 H   0  0  0  0  0  0  0  0  0  0  0  0
    4.3211   -2.7899   -2.5144 H   0  0  0  0  0  0  0  0  0  0  0  0
  1  5  1  0
  5  8  1  0
  1  2  1  0
  1  3  1  0
  1  4  1  0
  5  6  1  0
  5  7  1  0
  8  9  1  0
  8 10  1  0
  8 11  1  0
 12 16  1  0
 16 17  1  0
 12 13  1  0
 12 14  1  0
 12 15  1  0
 17 18  1  0
 17 19  1  0
 17 20  1  0
M  CHG  1   8   1
M  END
>  <PDB_ID>  (1658) 
pdb5ijz

>  <RESIDUE_NAME>  (1658) 
LYS   MET

>  <FRAG_NAME>  (1658) 
ETAM   MSM

>  <FRAG_ATOM_NUM>  (1658) 
fragi: 11  fragj: 9

>  <atom.prop.CHAIN_ID>  (1658) 
A A A A A A A A A A A Z Z Z Z Z Z Z Z Z

>  <atom.prop.IS_HEAVY_ATOM>  (1658) 
1 0 0 0 1 0 0 1 0 0 0 1 0 0 0 1 1 0 0 0

>  <DIFUSE_FUNC_ATOM>  (1658) 
n/a

>  <FINAL_SINGLE_POINT_ENERGY>  (1658) 
0

>  <NONCOV_INTER_ENERGY_QM>  (1658) 
0

>  <FF_Energy>  (1658) 
-2.88

>  <QM_Energy>  (1658) 
-7.97

>  <source>  (1658) 
ETAM_MSM

>  <Index>  (1658) 
10531

$$$$
ETAM-pdb5ilb-B-LYS-518:MSM-pdb5ilb-B-MET-529
     RDKit          3D

 20 18  0  0  0  0  0  0  0  0999 V2000
    1.2514    0.8698   -0.0000 C   0  0  0  0  0  0  0  0  0  0  0  0
    2.0489    0.2776   -0.0456 H   0  0  0  0  0  0  0  0  0  0  0  0
    1.2647    1.4047    0.8371 H   0  0  0  0  0  0  0  0  0  0  0  0
    1.2675    1.5484   -0.8528 H   0  0  0  0  0  0  0  0  0  0  0  0
    0.0000    0.0000    0.0000 C   0  0  0  0  0  0  0  0  0  0  0  0
    0.0131   -0.5863   -0.8160 H   0  0  0  0  0  0  0  0  0  0  0  0
    0.0128   -0.5862    0.8170 H   0  0  0  0  0  0  0  0  0  0  0  0
   -1.2514    0.8099   -0.0000 N   0  0  0  0  0  4  0  0  0  0  0  0
   -1.1104    1.6356   -0.5447 H   0  0  0  0  0  0  0  0  0  0  0  0
   -1.9945    0.2704   -0.3944 H   0  0  0  0  0  0  0  0  0  0  0  0
   -1.4816    1.0628    0.9391 H   0  0  0  0  0  0  0  0  0  0  0  0
   -0.6086   -3.9731   -0.9443 C   0  0  0  0  0  0  0  0  0  0  0  0
   -0.3870   -3.6022   -0.0066 H   0  0  0  0  0  0  0  0  0  0  0  0
   -0.0493   -4.8380   -1.0192 H   0  0  0  0  0  0  0  0  0  0  0  0
   -1.6635   -4.2473   -0.9601 H   0  0  0  0  0  0  0  0  0  0  0  0
   -0.1375   -2.7966   -2.2236 S   0  0  0  0  0  0  0  0  0  0  0  0
   -0.3207   -3.8106   -3.6736 C   0  0  0  0  0  0  0  0  0  0  0  0
    0.5418   -3.8335   -4.1860 H   0  0  0  0  0  0  0  0  0  0  0  0
   -0.5679   -4.7453   -3.4080 H   0  0  0  0  0  0  0  0  0  0  0  0
   -1.0405   -3.4368   -4.2630 H   0  0  0  0  0  0  0  0  0  0  0  0
  1  5  1  0
  5  8  1  0
  1  2  1  0
  1  3  1  0
  1  4  1  0
  5  6  1  0
  5  7  1  0
  8  9  1  0
  8 10  1  0
  8 11  1  0
 12 16  1  0
 16 17  1  0
 12 13  1  0
 12 14  1  0
 12 15  1  0
 17 18  1  0
 17 19  1  0
 17 20  1  0
M  CHG  1   8   1
M  END
>  <PDB_ID>  (1659) 
pdb5ilb

>  <RESIDUE_NAME>  (1659) 
LYS   MET

>  <FRAG_NAME>  (1659) 
ETAM   MSM

>  <FRAG_ATOM_NUM>  (1659) 
fragi: 11  fragj: 9

>  <atom.prop.CHAIN_ID>  (1659) 
A A A A A A A A A A A Z Z Z Z Z Z Z Z Z

>  <atom.prop.IS_HEAVY_ATOM>  (1659) 
1 0 0 0 1 0 0 1 0 0 0 1 0 0 0 1 1 0 0 0

>  <DIFUSE_FUNC_ATOM>  (1659) 
n/a

>  <FINAL_SINGLE_POINT_ENERGY>  (1659) 
0

>  <NONCOV_INTER_ENERGY_QM>  (1659) 
0

>  <FF_Energy>  (1659) 
-2.87

>  <QM_Energy>  (1659) 
-8.06

>  <source>  (1659) 
ETAM_MSM

>  <Index>  (1659) 
10547

$$$$
ETAM-pdb6j1a-A-LYS-153:MSM-pdb6j1a-A-MET-234
     RDKit          3D

 20 18  0  0  0  0  0  0  0  0999 V2000
    1.2593    0.8381    0.0000 C   0  0  0  0  0  0  0  0  0  0  0  0
    1.3011    1.3659    0.8035 H   0  0  0  0  0  0  0  0  0  0  0  0
    1.3309    1.3218   -0.8289 H   0  0  0  0  0  0  0  0  0  0  0  0
    2.0671    0.1073    0.0352 H   0  0  0  0  0  0  0  0  0  0  0  0
    0.0000    0.0000    0.0000 C   0  0  0  0  0  0  0  0  0  0  0  0
   -0.0015   -0.5949   -0.8162 H   0  0  0  0  0  0  0  0  0  0  0  0
   -0.0022   -0.5954    0.8164 H   0  0  0  0  0  0  0  0  0  0  0  0
   -1.2593    0.8155    0.0000 N   0  0  0  0  0  4  0  0  0  0  0  0
   -1.4799    1.0741   -0.9383 H   0  0  0  0  0  0  0  0  0  0  0  0
   -2.0008    0.2692    0.3848 H   0  0  0  0  0  0  0  0  0  0  0  0
   -1.1176    1.6339    0.5532 H   0  0  0  0  0  0  0  0  0  0  0  0
   -1.7034   -3.0650    2.7715 C   0  0  0  0  0  0  0  0  0  0  0  0
   -0.6756   -2.8199    2.7992 H   0  0  0  0  0  0  0  0  0  0  0  0
   -1.7639   -3.5875    1.8542 H   0  0  0  0  0  0  0  0  0  0  0  0
   -1.9402   -3.7395    3.5944 H   0  0  0  0  0  0  0  0  0  0  0  0
   -2.6685   -1.5535    2.6537 S   0  0  0  0  0  0  0  0  0  0  0  0
   -1.8516   -0.6824    4.1103 C   0  0  0  0  0  0  0  0  0  0  0  0
   -2.5004   -0.0238    4.4554 H   0  0  0  0  0  0  0  0  0  0  0  0
   -1.6420   -1.3743    4.7813 H   0  0  0  0  0  0  0  0  0  0  0  0
   -1.0360   -0.2462    3.7669 H   0  0  0  0  0  0  0  0  0  0  0  0
  1  5  1  0
  5  8  1  0
  1  2  1  0
  1  3  1  0
  1  4  1  0
  5  6  1  0
  5  7  1  0
  8  9  1  0
  8 10  1  0
  8 11  1  0
 12 16  1  0
 16 17  1  0
 12 13  1  0
 12 14  1  0
 12 15  1  0
 17 18  1  0
 17 19  1  0
 17 20  1  0
M  CHG  1   8   1
M  END
>  <PDB_ID>  (1660) 
pdb6j1a

>  <RESIDUE_NAME>  (1660) 
LYS   MET

>  <FRAG_NAME>  (1660) 
ETAM   MSM

>  <FRAG_ATOM_NUM>  (1660) 
fragi: 11  fragj: 9

>  <atom.prop.CHAIN_ID>  (1660) 
A A A A A A A A A A A Z Z Z Z Z Z Z Z Z

>  <atom.prop.IS_HEAVY_ATOM>  (1660) 
1 0 0 0 1 0 0 1 0 0 0 1 0 0 0 1 1 0 0 0

>  <DIFUSE_FUNC_ATOM>  (1660) 
n/a

>  <FINAL_SINGLE_POINT_ENERGY>  (1660) 
0

>  <NONCOV_INTER_ENERGY_QM>  (1660) 
0

>  <FF_Energy>  (1660) 
-4.23

>  <QM_Energy>  (1660) 
-11.14

>  <source>  (1660) 
ETAM_MSM

>  <Index>  (1660) 
10548

$$$$
ETAM-pdb6j0w-A-LYS-364:MSM-pdb6j0w-A-MET-484
     RDKit          3D

 20 18  0  0  0  0  0  0  0  0999 V2000
    1.2511    0.8944    0.0000 C   0  0  0  0  0  0  0  0  0  0  0  0
    2.0543    0.2969   -0.0564 H   0  0  0  0  0  0  0  0  0  0  0  0
    1.2734    1.3901    0.8715 H   0  0  0  0  0  0  0  0  0  0  0  0
    1.2758    1.6092   -0.8225 H   0  0  0  0  0  0  0  0  0  0  0  0
    0.0000    0.0000    0.0000 C   0  0  0  0  0  0  0  0  0  0  0  0
    0.0277   -0.5824   -0.8160 H   0  0  0  0  0  0  0  0  0  0  0  0
    0.0272   -0.5820    0.8165 H   0  0  0  0  0  0  0  0  0  0  0  0
   -1.2511    0.7967   -0.0000 N   0  0  0  0  0  4  0  0  0  0  0  0
   -1.8032    0.5524    0.7980 H   0  0  0  0  0  0  0  0  0  0  0  0
   -1.0265    1.7709    0.0364 H   0  0  0  0  0  0  0  0  0  0  0  0
   -1.7692    0.6052   -0.8346 H   0  0  0  0  0  0  0  0  0  0  0  0
   -1.6149    5.2442   -1.3644 C   0  0  0  0  0  0  0  0  0  0  0  0
   -0.7366    5.1519   -1.8672 H   0  0  0  0  0  0  0  0  0  0  0  0
   -1.3874    5.5799   -0.4319 H   0  0  0  0  0  0  0  0  0  0  0  0
   -2.2203    6.0000   -1.8647 H   0  0  0  0  0  0  0  0  0  0  0  0
   -2.4780    3.6447   -1.2797 S   0  0  0  0  0  0  0  0  0  0  0  0
   -2.3566    3.1252   -2.9842 C   0  0  0  0  0  0  0  0  0  0  0  0
   -3.2747    3.0172   -3.3709 H   0  0  0  0  0  0  0  0  0  0  0  0
   -1.8549    3.8135   -3.5125 H   0  0  0  0  0  0  0  0  0  0  0  0
   -1.8712    2.2505   -3.0377 H   0  0  0  0  0  0  0  0  0  0  0  0
  1  5  1  0
  5  8  1  0
  1  2  1  0
  1  3  1  0
  1  4  1  0
  5  6  1  0
  5  7  1  0
  8  9  1  0
  8 10  1  0
  8 11  1  0
 12 16  1  0
 16 17  1  0
 12 13  1  0
 12 14  1  0
 12 15  1  0
 17 18  1  0
 17 19  1  0
 17 20  1  0
M  CHG  1   8   1
M  END
>  <PDB_ID>  (1661) 
pdb6j0w

>  <RESIDUE_NAME>  (1661) 
LYS   MET

>  <FRAG_NAME>  (1661) 
ETAM   MSM

>  <FRAG_ATOM_NUM>  (1661) 
fragi: 11  fragj: 9

>  <atom.prop.CHAIN_ID>  (1661) 
A A A A A A A A A A A Z Z Z Z Z Z Z Z Z

>  <atom.prop.IS_HEAVY_ATOM>  (1661) 
1 0 0 0 1 0 0 1 0 0 0 1 0 0 0 1 1 0 0 0

>  <DIFUSE_FUNC_ATOM>  (1661) 
n/a

>  <FINAL_SINGLE_POINT_ENERGY>  (1661) 
0

>  <NONCOV_INTER_ENERGY_QM>  (1661) 
0

>  <FF_Energy>  (1661) 
-4.88

>  <QM_Energy>  (1661) 
-12.67

>  <source>  (1661) 
ETAM_MSM

>  <Index>  (1661) 
10552

$$$$
ETAM-pdb6j0x-A-LYS-364:MSM-pdb6j0x-A-MET-484
     RDKit          3D

 20 18  0  0  0  0  0  0  0  0999 V2000
    1.2433    0.8710    0.0000 C   0  0  0  0  0  0  0  0  0  0  0  0
    2.0429    0.2854   -0.0838 H   0  0  0  0  0  0  0  0  0  0  0  0
    1.2746    1.3819    0.8518 H   0  0  0  0  0  0  0  0  0  0  0  0
    1.2331    1.5737   -0.8331 H   0  0  0  0  0  0  0  0  0  0  0  0
    0.0000    0.0000    0.0000 C   0  0  0  0  0  0  0  0  0  0  0  0
    0.0084   -0.5818   -0.8160 H   0  0  0  0  0  0  0  0  0  0  0  0
    0.0083   -0.5814    0.8162 H   0  0  0  0  0  0  0  0  0  0  0  0
   -1.2433    0.8227   -0.0000 N   0  0  0  0  0  4  0  0  0  0  0  0
   -1.6007    0.8815    0.9307 H   0  0  0  0  0  0  0  0  0  0  0  0
   -1.0328    1.7386   -0.3378 H   0  0  0  0  0  0  0  0  0  0  0  0
   -1.9226    0.3939   -0.5935 H   0  0  0  0  0  0  0  0  0  0  0  0
   -1.6504    5.2705   -1.8326 C   0  0  0  0  0  0  0  0  0  0  0  0
   -0.8124    5.0695   -2.4043 H   0  0  0  0  0  0  0  0  0  0  0  0
   -1.2743    5.7105   -0.9760 H   0  0  0  0  0  0  0  0  0  0  0  0
   -2.2458    6.0157   -2.3600 H   0  0  0  0  0  0  0  0  0  0  0  0
   -2.5281    3.7341   -1.4268 S   0  0  0  0  0  0  0  0  0  0  0  0
   -2.8840    3.0982   -3.0611 C   0  0  0  0  0  0  0  0  0  0  0  0
   -2.8982    2.0970   -3.0368 H   0  0  0  0  0  0  0  0  0  0  0  0
   -3.7764    3.4346   -3.3662 H   0  0  0  0  0  0  0  0  0  0  0  0
   -2.1783    3.4044   -3.7025 H   0  0  0  0  0  0  0  0  0  0  0  0
  1  5  1  0
  5  8  1  0
  1  2  1  0
  1  3  1  0
  1  4  1  0
  5  6  1  0
  5  7  1  0
  8  9  1  0
  8 10  1  0
  8 11  1  0
 12 16  1  0
 16 17  1  0
 12 13  1  0
 12 14  1  0
 12 15  1  0
 17 18  1  0
 17 19  1  0
 17 20  1  0
M  CHG  1   8   1
M  END
>  <PDB_ID>  (1662) 
pdb6j0x

>  <RESIDUE_NAME>  (1662) 
LYS   MET

>  <FRAG_NAME>  (1662) 
ETAM   MSM

>  <FRAG_ATOM_NUM>  (1662) 
fragi: 11  fragj: 9

>  <atom.prop.CHAIN_ID>  (1662) 
A A A A A A A A A A A Z Z Z Z Z Z Z Z Z

>  <atom.prop.IS_HEAVY_ATOM>  (1662) 
1 0 0 0 1 0 0 1 0 0 0 1 0 0 0 1 1 0 0 0

>  <DIFUSE_FUNC_ATOM>  (1662) 
n/a

>  <FINAL_SINGLE_POINT_ENERGY>  (1662) 
0

>  <NONCOV_INTER_ENERGY_QM>  (1662) 
0

>  <FF_Energy>  (1662) 
-4.93

>  <QM_Energy>  (1662) 
-13.02

>  <source>  (1662) 
ETAM_MSM

>  <Index>  (1662) 
10555

$$$$
ETAM-pdb5ikj-A-LYS-457:MSM-pdb5ikj-A-MET-454
     RDKit          3D

 20 18  0  0  0  0  0  0  0  0999 V2000
    1.2475    0.8737    0.0000 C   0  0  0  0  0  0  0  0  0  0  0  0
    1.2331    1.4199    0.8015 H   0  0  0  0  0  0  0  0  0  0  0  0
    1.2203    1.4387   -0.7886 H   0  0  0  0  0  0  0  0  0  0  0  0
    2.1633    0.2827   -0.0142 H   0  0  0  0  0  0  0  0  0  0  0  0
    0.0000    0.0000    0.0000 C   0  0  0  0  0  0  0  0  0  0  0  0
    0.0005   -0.5545   -0.7957 H   0  0  0  0  0  0  0  0  0  0  0  0
   -0.0001   -0.5553    0.7957 H   0  0  0  0  0  0  0  0  0  0  0  0
   -1.2475    0.8124    0.0000 N   0  0  0  0  0  4  0  0  0  0  0  0
   -1.9582    0.2769    0.0003 H   0  0  0  0  0  0  0  0  0  0  0  0
   -1.2742    1.3286    0.7251 H   0  0  0  0  0  0  0  0  0  0  0  0
   -1.2741    1.3285   -0.7237 H   0  0  0  0  0  0  0  0  0  0  0  0
    0.3555    4.2844   -3.7351 C   0  0  0  0  0  0  0  0  0  0  0  0
    0.6655    4.9209   -3.0735 H   0  0  0  0  0  0  0  0  0  0  0  0
   -0.2013    4.7342   -4.3904 H   0  0  0  0  0  0  0  0  0  0  0  0
    1.2182    3.8538   -4.2432 H   0  0  0  0  0  0  0  0  0  0  0  0
   -0.6660    3.0584   -2.8887 S   0  0  0  0  0  0  0  0  0  0  0  0
   -1.1861    2.0231   -4.2565 C   0  0  0  0  0  0  0  0  0  0  0  0
   -1.7530    1.3135   -3.9168 H   0  0  0  0  0  0  0  0  0  0  0  0
   -1.6790    2.5646   -4.8933 H   0  0  0  0  0  0  0  0  0  0  0  0
   -0.4000    1.6450   -4.6820 H   0  0  0  0  0  0  0  0  0  0  0  0
  1  5  1  0
  5  8  1  0
  1  2  1  0
  1  3  1  0
  1  4  1  0
  5  6  1  0
  5  7  1  0
  8  9  1  0
  8 10  1  0
  8 11  1  0
 12 16  1  0
 16 17  1  0
 12 13  1  0
 12 14  1  0
 12 15  1  0
 17 18  1  0
 17 19  1  0
 17 20  1  0
M  CHG  1   8   1
M  END
>  <PDB_ID>  (1663) 
pdb5ikj

>  <RESIDUE_NAME>  (1663) 
LYS   MET

>  <FRAG_NAME>  (1663) 
ETAM   MSM

>  <FRAG_ATOM_NUM>  (1663) 
fragi: 11  fragj: 9

>  <atom.prop.CHAIN_ID>  (1663) 
A A A A A A A A A A A Z Z Z Z Z Z Z Z Z

>  <atom.prop.IS_HEAVY_ATOM>  (1663) 
1 0 0 0 1 0 0 1 0 0 0 1 0 0 0 1 1 0 0 0

>  <DIFUSE_FUNC_ATOM>  (1663) 
n/a

>  <FINAL_SINGLE_POINT_ENERGY>  (1663) 
0

>  <NONCOV_INTER_ENERGY_QM>  (1663) 
0

>  <FF_Energy>  (1663) 
-5.2

>  <QM_Energy>  (1663) 
-11.76

>  <source>  (1663) 
ETAM_MSM

>  <Index>  (1663) 
10556

$$$$
ETAM-pdb6j0x-B-LYS-364:MSM-pdb6j0x-B-MET-484
     RDKit          3D

 20 18  0  0  0  0  0  0  0  0999 V2000
    1.2536    0.8697    0.0000 C   0  0  0  0  0  0  0  0  0  0  0  0
    2.0493    0.2766   -0.1075 H   0  0  0  0  0  0  0  0  0  0  0  0
    1.3053    1.3488    0.8739 H   0  0  0  0  0  0  0  0  0  0  0  0
    1.2512    1.6043   -0.8052 H   0  0  0  0  0  0  0  0  0  0  0  0
    0.0000    0.0000    0.0000 C   0  0  0  0  0  0  0  0  0  0  0  0
    0.0127   -0.5860   -0.8166 H   0  0  0  0  0  0  0  0  0  0  0  0
    0.0117   -0.5860    0.8161 H   0  0  0  0  0  0  0  0  0  0  0  0
   -1.2536    0.8107   -0.0000 N   0  0  0  0  0  4  0  0  0  0  0  0
   -1.1545    1.5703    0.6401 H   0  0  0  0  0  0  0  0  0  0  0  0
   -1.4170    1.1646   -0.9200 H   0  0  0  0  0  0  0  0  0  0  0  0
   -2.0187    0.2334    0.2789 H   0  0  0  0  0  0  0  0  0  0  0  0
   -1.6754    5.2510   -1.7496 C   0  0  0  0  0  0  0  0  0  0  0  0
   -0.9173    5.0726   -2.4278 H   0  0  0  0  0  0  0  0  0  0  0  0
   -1.1935    5.6314   -0.9196 H   0  0  0  0  0  0  0  0  0  0  0  0
   -2.3183    6.0314   -2.1569 H   0  0  0  0  0  0  0  0  0  0  0  0
   -2.5306    3.7000   -1.3313 S   0  0  0  0  0  0  0  0  0  0  0  0
   -3.0087    3.1178   -2.9569 C   0  0  0  0  0  0  0  0  0  0  0  0
   -3.7736    3.6659   -3.2977 H   0  0  0  0  0  0  0  0  0  0  0  0
   -2.2337    3.2031   -3.5846 H   0  0  0  0  0  0  0  0  0  0  0  0
   -3.2870    2.1578   -2.9014 H   0  0  0  0  0  0  0  0  0  0  0  0
  1  5  1  0
  5  8  1  0
  1  2  1  0
  1  3  1  0
  1  4  1  0
  5  6  1  0
  5  7  1  0
  8  9  1  0
  8 10  1  0
  8 11  1  0
 12 16  1  0
 16 17  1  0
 12 13  1  0
 12 14  1  0
 12 15  1  0
 17 18  1  0
 17 19  1  0
 17 20  1  0
M  CHG  1   8   1
M  END
>  <PDB_ID>  (1664) 
pdb6j0x

>  <RESIDUE_NAME>  (1664) 
LYS   MET

>  <FRAG_NAME>  (1664) 
ETAM   MSM

>  <FRAG_ATOM_NUM>  (1664) 
fragi: 11  fragj: 9

>  <atom.prop.CHAIN_ID>  (1664) 
A A A A A A A A A A A Z Z Z Z Z Z Z Z Z

>  <atom.prop.IS_HEAVY_ATOM>  (1664) 
1 0 0 0 1 0 0 1 0 0 0 1 0 0 0 1 1 0 0 0

>  <DIFUSE_FUNC_ATOM>  (1664) 
n/a

>  <FINAL_SINGLE_POINT_ENERGY>  (1664) 
0

>  <NONCOV_INTER_ENERGY_QM>  (1664) 
0

>  <FF_Energy>  (1664) 
-4.99

>  <QM_Energy>  (1664) 
-12.1

>  <source>  (1664) 
ETAM_MSM

>  <Index>  (1664) 
10570

$$$$
ETAM-pdb6j0y-B-LYS-364:MSM-pdb6j0y-B-MET-484
     RDKit          3D

 20 18  0  0  0  0  0  0  0  0999 V2000
    1.2482    0.8875   -0.0000 C   0  0  0  0  0  0  0  0  0  0  0  0
    2.0433    0.3055    0.0608 H   0  0  0  0  0  0  0  0  0  0  0  0
    1.1900    1.5059    0.7671 H   0  0  0  0  0  0  0  0  0  0  0  0
    1.2916    1.4623   -0.9251 H   0  0  0  0  0  0  0  0  0  0  0  0
    0.0000    0.0000    0.0000 C   0  0  0  0  0  0  0  0  0  0  0  0
    0.0057   -0.5684   -0.8162 H   0  0  0  0  0  0  0  0  0  0  0  0
    0.0059   -0.5685    0.8161 H   0  0  0  0  0  0  0  0  0  0  0  0
   -1.2482    0.8452   -0.0000 N   0  0  0  0  0  4  0  0  0  0  0  0
   -1.9262    0.4175    0.5917 H   0  0  0  0  0  0  0  0  0  0  0  0
   -1.0213    1.7538    0.3402 H   0  0  0  0  0  0  0  0  0  0  0  0
   -1.5963    0.9051   -0.9319 H   0  0  0  0  0  0  0  0  0  0  0  0
   -1.5800    4.3713   -3.0964 C   0  0  0  0  0  0  0  0  0  0  0  0
   -0.6905    4.0540   -3.4926 H   0  0  0  0  0  0  0  0  0  0  0  0
   -1.3366    5.0758   -2.3941 H   0  0  0  0  0  0  0  0  0  0  0  0
   -2.1532    4.8569   -3.8861 H   0  0  0  0  0  0  0  0  0  0  0  0
   -2.4648    2.9770   -2.3205 S   0  0  0  0  0  0  0  0  0  0  0  0
   -2.4264    1.7745   -3.6452 C   0  0  0  0  0  0  0  0  0  0  0  0
   -2.4558    0.8500   -3.2616 H   0  0  0  0  0  0  0  0  0  0  0  0
   -3.2175    1.9087   -4.2447 H   0  0  0  0  0  0  0  0  0  0  0  0
   -1.5856    1.8860   -4.1769 H   0  0  0  0  0  0  0  0  0  0  0  0
  1  5  1  0
  5  8  1  0
  1  2  1  0
  1  3  1  0
  1  4  1  0
  5  6  1  0
  5  7  1  0
  8  9  1  0
  8 10  1  0
  8 11  1  0
 12 16  1  0
 16 17  1  0
 12 13  1  0
 12 14  1  0
 12 15  1  0
 17 18  1  0
 17 19  1  0
 17 20  1  0
M  CHG  1   8   1
M  END
>  <PDB_ID>  (1665) 
pdb6j0y

>  <RESIDUE_NAME>  (1665) 
LYS   MET

>  <FRAG_NAME>  (1665) 
ETAM   MSM

>  <FRAG_ATOM_NUM>  (1665) 
fragi: 11  fragj: 9

>  <atom.prop.CHAIN_ID>  (1665) 
A A A A A A A A A A A Z Z Z Z Z Z Z Z Z

>  <atom.prop.IS_HEAVY_ATOM>  (1665) 
1 0 0 0 1 0 0 1 0 0 0 1 0 0 0 1 1 0 0 0

>  <DIFUSE_FUNC_ATOM>  (1665) 
n/a

>  <FINAL_SINGLE_POINT_ENERGY>  (1665) 
0

>  <NONCOV_INTER_ENERGY_QM>  (1665) 
0

>  <FF_Energy>  (1665) 
-4.94

>  <QM_Energy>  (1665) 
-11.79

>  <source>  (1665) 
ETAM_MSM

>  <Index>  (1665) 
10571

$$$$
ETAM-pdb5iuu-A-LYS-479:MSM-pdb5iuu-A-MET-463
     RDKit          3D

 20 18  0  0  0  0  0  0  0  0999 V2000
    1.2449    0.8226    0.0000 C   0  0  0  0  0  0  0  0  0  0  0  0
    1.9947    0.2618   -0.3175 H   0  0  0  0  0  0  0  0  0  0  0  0
    1.4049    1.1541    0.9174 H   0  0  0  0  0  0  0  0  0  0  0  0
    1.0857    1.6586   -0.6811 H   0  0  0  0  0  0  0  0  0  0  0  0
    0.0000    0.0000    0.0000 C   0  0  0  0  0  0  0  0  0  0  0  0
   -0.0058   -0.6025   -0.8163 H   0  0  0  0  0  0  0  0  0  0  0  0
   -0.0057   -0.6022    0.8166 H   0  0  0  0  0  0  0  0  0  0  0  0
   -1.2449    0.8095   -0.0000 N   0  0  0  0  0  4  0  0  0  0  0  0
   -1.9754    0.2965   -0.4502 H   0  0  0  0  0  0  0  0  0  0  0  0
   -1.5112    1.0114    0.9423 H   0  0  0  0  0  0  0  0  0  0  0  0
   -1.0859    1.6651   -0.4920 H   0  0  0  0  0  0  0  0  0  0  0  0
    2.4083   -3.4847    0.5749 C   0  0  0  0  0  0  0  0  0  0  0  0
    1.7872   -3.7414    1.3511 H   0  0  0  0  0  0  0  0  0  0  0  0
    3.2712   -4.0203    0.7284 H   0  0  0  0  0  0  0  0  0  0  0  0
    1.9533   -3.8295   -0.3537 H   0  0  0  0  0  0  0  0  0  0  0  0
    2.7575   -1.6925    0.6045 S   0  0  0  0  0  0  0  0  0  0  0  0
    3.8043   -1.4402   -0.8309 C   0  0  0  0  0  0  0  0  0  0  0  0
    3.5706   -0.5706   -1.2662 H   0  0  0  0  0  0  0  0  0  0  0  0
    4.7628   -1.4231   -0.5463 H   0  0  0  0  0  0  0  0  0  0  0  0
    3.6640   -2.1870   -1.4830 H   0  0  0  0  0  0  0  0  0  0  0  0
  1  5  1  0
  5  8  1  0
  1  2  1  0
  1  3  1  0
  1  4  1  0
  5  6  1  0
  5  7  1  0
  8  9  1  0
  8 10  1  0
  8 11  1  0
 12 16  1  0
 16 17  1  0
 12 13  1  0
 12 14  1  0
 12 15  1  0
 17 18  1  0
 17 19  1  0
 17 20  1  0
M  CHG  1   8   1
M  END
>  <PDB_ID>  (1666) 
pdb5iuu

>  <RESIDUE_NAME>  (1666) 
LYS   MET

>  <FRAG_NAME>  (1666) 
ETAM   MSM

>  <FRAG_ATOM_NUM>  (1666) 
fragi: 11  fragj: 9

>  <atom.prop.CHAIN_ID>  (1666) 
A A A A A A A A A A A Z Z Z Z Z Z Z Z Z

>  <atom.prop.IS_HEAVY_ATOM>  (1666) 
1 0 0 0 1 0 0 1 0 0 0 1 0 0 0 1 1 0 0 0

>  <DIFUSE_FUNC_ATOM>  (1666) 
n/a

>  <FINAL_SINGLE_POINT_ENERGY>  (1666) 
0

>  <NONCOV_INTER_ENERGY_QM>  (1666) 
0

>  <FF_Energy>  (1666) 
10.34

>  <QM_Energy>  (1666) 
-3.07

>  <source>  (1666) 
ETAM_MSM

>  <Index>  (1666) 
10585

$$$$
ETAM-pdb5iy2-A-LYS-150:MSM-pdb5iy2-A-MET-157
     RDKit          3D

 20 18  0  0  0  0  0  0  0  0999 V2000
    1.2505    0.8661   -0.0000 C   0  0  0  0  0  0  0  0  0  0  0  0
    1.1509    1.5671    0.6921 H   0  0  0  0  0  0  0  0  0  0  0  0
    1.3602    1.2644   -0.8994 H   0  0  0  0  0  0  0  0  0  0  0  0
    2.1299    0.2648    0.2310 H   0  0  0  0  0  0  0  0  0  0  0  0
    0.0000    0.0000    0.0000 C   0  0  0  0  0  0  0  0  0  0  0  0
    0.0144   -0.5895   -0.8158 H   0  0  0  0  0  0  0  0  0  0  0  0
    0.0134   -0.5894    0.8165 H   0  0  0  0  0  0  0  0  0  0  0  0
   -1.2505    0.8028    0.0000 N   0  0  0  0  0  4  0  0  0  0  0  0
   -1.0643    1.7081    0.3825 H   0  0  0  0  0  0  0  0  0  0  0  0
   -1.5840    0.8987   -0.9379 H   0  0  0  0  0  0  0  0  0  0  0  0
   -1.9419    0.3411    0.5549 H   0  0  0  0  0  0  0  0  0  0  0  0
    1.4914    5.3298    0.4825 C   0  0  0  0  0  0  0  0  0  0  0  0
    2.2912    5.2621    1.1209 H   0  0  0  0  0  0  0  0  0  0  0  0
    1.1993    6.3118    0.5115 H   0  0  0  0  0  0  0  0  0  0  0  0
    1.8368    5.1029   -0.5261 H   0  0  0  0  0  0  0  0  0  0  0  0
    0.1502    4.2478    1.0208 S   0  0  0  0  0  0  0  0  0  0  0  0
   -1.2267    4.9778    0.1387 C   0  0  0  0  0  0  0  0  0  0  0  0
   -0.9242    5.8116   -0.3245 H   0  0  0  0  0  0  0  0  0  0  0  0
   -1.5735    4.3285   -0.5395 H   0  0  0  0  0  0  0  0  0  0  0  0
   -1.9572    5.2042    0.7848 H   0  0  0  0  0  0  0  0  0  0  0  0
  1  5  1  0
  5  8  1  0
  1  2  1  0
  1  3  1  0
  1  4  1  0
  5  6  1  0
  5  7  1  0
  8  9  1  0
  8 10  1  0
  8 11  1  0
 12 16  1  0
 16 17  1  0
 12 13  1  0
 12 14  1  0
 12 15  1  0
 17 18  1  0
 17 19  1  0
 17 20  1  0
M  CHG  1   8   1
M  END
>  <PDB_ID>  (1667) 
pdb5iy2

>  <RESIDUE_NAME>  (1667) 
LYS   MET

>  <FRAG_NAME>  (1667) 
ETAM   MSM

>  <FRAG_ATOM_NUM>  (1667) 
fragi: 11  fragj: 9

>  <atom.prop.CHAIN_ID>  (1667) 
A A A A A A A A A A A Z Z Z Z Z Z Z Z Z

>  <atom.prop.IS_HEAVY_ATOM>  (1667) 
1 0 0 0 1 0 0 1 0 0 0 1 0 0 0 1 1 0 0 0

>  <DIFUSE_FUNC_ATOM>  (1667) 
n/a

>  <FINAL_SINGLE_POINT_ENERGY>  (1667) 
0

>  <NONCOV_INTER_ENERGY_QM>  (1667) 
0

>  <FF_Energy>  (1667) 
-4.47

>  <QM_Energy>  (1667) 
-9.8

>  <source>  (1667) 
ETAM_MSM

>  <Index>  (1667) 
10594

$$$$
ETAM-pdb5izh-A-LYS-44:MSM-pdb5izh-A-MET-40
     RDKit          3D

 20 18  0  0  0  0  0  0  0  0999 V2000
    1.2793    0.8359    0.0000 C   0  0  0  0  0  0  0  0  0  0  0  0
    1.2019    1.5322    0.6979 H   0  0  0  0  0  0  0  0  0  0  0  0
    1.3961    1.2346   -0.8969 H   0  0  0  0  0  0  0  0  0  0  0  0
    2.1435    0.2101    0.2226 H   0  0  0  0  0  0  0  0  0  0  0  0
    0.0000    0.0000    0.0000 C   0  0  0  0  0  0  0  0  0  0  0  0
    0.0156   -0.6118   -0.8159 H   0  0  0  0  0  0  0  0  0  0  0  0
    0.0152   -0.6117    0.8160 H   0  0  0  0  0  0  0  0  0  0  0  0
   -1.2793    0.7666   -0.0000 N   0  0  0  0  0  4  0  0  0  0  0  0
   -1.5202    1.0068   -0.9393 H   0  0  0  0  0  0  0  0  0  0  0  0
   -2.0016    0.2027    0.3986 H   0  0  0  0  0  0  0  0  0  0  0  0
   -1.1656    1.5985    0.5417 H   0  0  0  0  0  0  0  0  0  0  0  0
   -3.3018   -1.7285    1.7712 C   0  0  0  0  0  0  0  0  0  0  0  0
   -2.3395   -1.3874    1.9235 H   0  0  0  0  0  0  0  0  0  0  0  0
   -3.1963   -2.5117    1.1072 H   0  0  0  0  0  0  0  0  0  0  0  0
   -3.6802   -2.1235    2.7141 H   0  0  0  0  0  0  0  0  0  0  0  0
   -4.3291   -0.4282    1.0577 S   0  0  0  0  0  0  0  0  0  0  0  0
   -5.8741   -1.3084    0.8213 C   0  0  0  0  0  0  0  0  0  0  0  0
   -6.4552   -0.8000    0.1849 H   0  0  0  0  0  0  0  0  0  0  0  0
   -5.6880   -2.2176    0.4475 H   0  0  0  0  0  0  0  0  0  0  0  0
   -6.3442   -1.4002    1.7002 H   0  0  0  0  0  0  0  0  0  0  0  0
  1  5  1  0
  5  8  1  0
  1  2  1  0
  1  3  1  0
  1  4  1  0
  5  6  1  0
  5  7  1  0
  8  9  1  0
  8 10  1  0
  8 11  1  0
 12 16  1  0
 16 17  1  0
 12 13  1  0
 12 14  1  0
 12 15  1  0
 17 18  1  0
 17 19  1  0
 17 20  1  0
M  CHG  1   8   1
M  END
>  <PDB_ID>  (1668) 
pdb5izh

>  <RESIDUE_NAME>  (1668) 
LYS   MET

>  <FRAG_NAME>  (1668) 
ETAM   MSM

>  <FRAG_ATOM_NUM>  (1668) 
fragi: 11  fragj: 9

>  <atom.prop.CHAIN_ID>  (1668) 
A A A A A A A A A A A Z Z Z Z Z Z Z Z Z

>  <atom.prop.IS_HEAVY_ATOM>  (1668) 
1 0 0 0 1 0 0 1 0 0 0 1 0 0 0 1 1 0 0 0

>  <DIFUSE_FUNC_ATOM>  (1668) 
n/a

>  <FINAL_SINGLE_POINT_ENERGY>  (1668) 
0

>  <NONCOV_INTER_ENERGY_QM>  (1668) 
0

>  <FF_Energy>  (1668) 
-4.7

>  <QM_Energy>  (1668) 
-10.7

>  <source>  (1668) 
ETAM_MSM

>  <Index>  (1668) 
10604

$$$$
ETAM-pdb6jld-B-LYS-217:MSM-pdb6jld-B-MET-116
     RDKit          3D

 20 18  0  0  0  0  0  0  0  0999 V2000
    1.2487    0.8780    0.0000 C   0  0  0  0  0  0  0  0  0  0  0  0
    1.0960    1.6431   -0.6197 H   0  0  0  0  0  0  0  0  0  0  0  0
    2.0185    0.3302   -0.3141 H   0  0  0  0  0  0  0  0  0  0  0  0
    1.4736    1.2679    0.9927 H   0  0  0  0  0  0  0  0  0  0  0  0
    0.0000    0.0000    0.0000 C   0  0  0  0  0  0  0  0  0  0  0  0
    0.0153   -0.5825   -0.8157 H   0  0  0  0  0  0  0  0  0  0  0  0
    0.0147   -0.5824    0.8162 H   0  0  0  0  0  0  0  0  0  0  0  0
   -1.2487    0.8125   -0.0000 N   0  0  0  0  0  4  0  0  0  0  0  0
   -1.8360    0.5163   -0.7523 H   0  0  0  0  0  0  0  0  0  0  0  0
   -1.7264    0.6850    0.8682 H   0  0  0  0  0  0  0  0  0  0  0  0
   -1.0158    1.7777   -0.1162 H   0  0  0  0  0  0  0  0  0  0  0  0
    1.9632   -1.7300   -2.6011 C   0  0  0  0  0  0  0  0  0  0  0  0
    2.2558   -1.1586   -3.3863 H   0  0  0  0  0  0  0  0  0  0  0  0
    1.3894   -1.1455   -2.0025 H   0  0  0  0  0  0  0  0  0  0  0  0
    1.3529   -2.5515   -2.9763 H   0  0  0  0  0  0  0  0  0  0  0  0
    3.3874   -2.3675   -1.7029 S   0  0  0  0  0  0  0  0  0  0  0  0
    3.0229   -1.9443   -0.0001 C   0  0  0  0  0  0  0  0  0  0  0  0
    2.1757   -2.3957    0.2839 H   0  0  0  0  0  0  0  0  0  0  0  0
    3.7733   -2.2467    0.5888 H   0  0  0  0  0  0  0  0  0  0  0  0
    2.9151   -0.9525    0.0838 H   0  0  0  0  0  0  0  0  0  0  0  0
  1  5  1  0
  5  8  1  0
  1  2  1  0
  1  3  1  0
  1  4  1  0
  5  6  1  0
  5  7  1  0
  8  9  1  0
  8 10  1  0
  8 11  1  0
 12 16  1  0
 16 17  1  0
 12 13  1  0
 12 14  1  0
 12 15  1  0
 17 18  1  0
 17 19  1  0
 17 20  1  0
M  CHG  1   8   1
M  END
>  <PDB_ID>  (1669) 
pdb6jld

>  <RESIDUE_NAME>  (1669) 
LYS   MET

>  <FRAG_NAME>  (1669) 
ETAM   MSM

>  <FRAG_ATOM_NUM>  (1669) 
fragi: 11  fragj: 9

>  <atom.prop.CHAIN_ID>  (1669) 
A A A A A A A A A A A Z Z Z Z Z Z Z Z Z

>  <atom.prop.IS_HEAVY_ATOM>  (1669) 
1 0 0 0 1 0 0 1 0 0 0 1 0 0 0 1 1 0 0 0

>  <DIFUSE_FUNC_ATOM>  (1669) 
n/a

>  <FINAL_SINGLE_POINT_ENERGY>  (1669) 
0

>  <NONCOV_INTER_ENERGY_QM>  (1669) 
0

>  <FF_Energy>  (1669) 
14.49

>  <QM_Energy>  (1669) 
5.02

>  <source>  (1669) 
ETAM_MSM

>  <Index>  (1669) 
10609

$$$$
ETAM-pdb5j5p-B-LYS-304:MSM-pdb5j5p-B-MET-369
     RDKit          3D

 20 18  0  0  0  0  0  0  0  0999 V2000
    1.2788    0.8285   -0.0000 C   0  0  0  0  0  0  0  0  0  0  0  0
    1.3578    1.2961    0.8641 H   0  0  0  0  0  0  0  0  0  0  0  0
    1.2519    1.4591   -0.7573 H   0  0  0  0  0  0  0  0  0  0  0  0
    2.1440    0.1766   -0.1211 H   0  0  0  0  0  0  0  0  0  0  0  0
    0.0000    0.0000    0.0000 C   0  0  0  0  0  0  0  0  0  0  0  0
    0.0129   -0.6146   -0.8164 H   0  0  0  0  0  0  0  0  0  0  0  0
    0.0132   -0.6144    0.8159 H   0  0  0  0  0  0  0  0  0  0  0  0
   -1.2788    0.7658   -0.0000 N   0  0  0  0  0  4  0  0  0  0  0  0
   -1.1287    1.6602    0.4192 H   0  0  0  0  0  0  0  0  0  0  0  0
   -1.5926    0.8847   -0.9407 H   0  0  0  0  0  0  0  0  0  0  0  0
   -1.9653    0.2620    0.5218 H   0  0  0  0  0  0  0  0  0  0  0  0
   -4.3022   -1.4175    1.6650 C   0  0  0  0  0  0  0  0  0  0  0  0
   -4.4067   -1.5035    0.6518 H   0  0  0  0  0  0  0  0  0  0  0  0
   -4.7065   -0.5114    1.9126 H   0  0  0  0  0  0  0  0  0  0  0  0
   -4.9109   -2.1934    2.1295 H   0  0  0  0  0  0  0  0  0  0  0  0
   -2.5364   -1.4898    2.1424 S   0  0  0  0  0  0  0  0  0  0  0  0
   -2.5203   -1.0006    3.8815 C   0  0  0  0  0  0  0  0  0  0  0  0
   -3.4479   -1.0570    4.2469 H   0  0  0  0  0  0  0  0  0  0  0  0
   -1.9190   -1.6152    4.3896 H   0  0  0  0  0  0  0  0  0  0  0  0
   -2.1839   -0.0631    3.9557 H   0  0  0  0  0  0  0  0  0  0  0  0
  1  5  1  0
  5  8  1  0
  1  2  1  0
  1  3  1  0
  1  4  1  0
  5  6  1  0
  5  7  1  0
  8  9  1  0
  8 10  1  0
  8 11  1  0
 12 16  1  0
 16 17  1  0
 12 13  1  0
 12 14  1  0
 12 15  1  0
 17 18  1  0
 17 19  1  0
 17 20  1  0
M  CHG  1   8   1
M  END
>  <PDB_ID>  (1670) 
pdb5j5p

>  <RESIDUE_NAME>  (1670) 
LYS   MET

>  <FRAG_NAME>  (1670) 
ETAM   MSM

>  <FRAG_ATOM_NUM>  (1670) 
fragi: 11  fragj: 9

>  <atom.prop.CHAIN_ID>  (1670) 
A A A A A A A A A A A Z Z Z Z Z Z Z Z Z

>  <atom.prop.IS_HEAVY_ATOM>  (1670) 
1 0 0 0 1 0 0 1 0 0 0 1 0 0 0 1 1 0 0 0

>  <DIFUSE_FUNC_ATOM>  (1670) 
n/a

>  <FINAL_SINGLE_POINT_ENERGY>  (1670) 
0

>  <NONCOV_INTER_ENERGY_QM>  (1670) 
0

>  <FF_Energy>  (1670) 
-5.28

>  <QM_Energy>  (1670) 
-16.17

>  <source>  (1670) 
ETAM_MSM

>  <Index>  (1670) 
10636

$$$$
ETAM-pdb6jr6-A-LYS-162:MSM-pdb6jr6-A-MET-175
     RDKit          3D

 20 18  0  0  0  0  0  0  0  0999 V2000
    1.2506    0.8503   -0.0000 C   0  0  0  0  0  0  0  0  0  0  0  0
    2.0422    0.2549   -0.0664 H   0  0  0  0  0  0  0  0  0  0  0  0
    1.2775    1.3782    0.8399 H   0  0  0  0  0  0  0  0  0  0  0  0
    1.2509    1.5338   -0.8490 H   0  0  0  0  0  0  0  0  0  0  0  0
    0.0000    0.0000    0.0000 C   0  0  0  0  0  0  0  0  0  0  0  0
    0.0023   -0.5900   -0.8162 H   0  0  0  0  0  0  0  0  0  0  0  0
    0.0011   -0.5900    0.8161 H   0  0  0  0  0  0  0  0  0  0  0  0
   -1.2506    0.8180   -0.0000 N   0  0  0  0  0  4  0  0  0  0  0  0
   -1.9400    0.3641    0.5626 H   0  0  0  0  0  0  0  0  0  0  0  0
   -1.0521    1.7222    0.3745 H   0  0  0  0  0  0  0  0  0  0  0  0
   -1.5845    0.9075   -0.9371 H   0  0  0  0  0  0  0  0  0  0  0  0
   -2.9241   -3.9645    0.4871 C   0  0  0  0  0  0  0  0  0  0  0  0
   -2.6001   -3.9147    1.4613 H   0  0  0  0  0  0  0  0  0  0  0  0
   -2.7993   -4.9473    0.2124 H   0  0  0  0  0  0  0  0  0  0  0  0
   -3.9897   -3.7361    0.4690 H   0  0  0  0  0  0  0  0  0  0  0  0
   -1.9632   -2.8782   -0.5645 S   0  0  0  0  0  0  0  0  0  0  0  0
   -0.3597   -3.6280   -0.3539 C   0  0  0  0  0  0  0  0  0  0  0  0
   -0.1531   -3.7206    0.6230 H   0  0  0  0  0  0  0  0  0  0  0  0
   -0.3507   -4.5355   -0.7790 H   0  0  0  0  0  0  0  0  0  0  0  0
    0.3420   -3.0568   -0.7847 H   0  0  0  0  0  0  0  0  0  0  0  0
  1  5  1  0
  5  8  1  0
  1  2  1  0
  1  3  1  0
  1  4  1  0
  5  6  1  0
  5  7  1  0
  8  9  1  0
  8 10  1  0
  8 11  1  0
 12 16  1  0
 16 17  1  0
 12 13  1  0
 12 14  1  0
 12 15  1  0
 17 18  1  0
 17 19  1  0
 17 20  1  0
M  CHG  1   8   1
M  END
>  <PDB_ID>  (1671) 
pdb6jr6

>  <RESIDUE_NAME>  (1671) 
LYS   MET

>  <FRAG_NAME>  (1671) 
ETAM   MSM

>  <FRAG_ATOM_NUM>  (1671) 
fragi: 11  fragj: 9

>  <atom.prop.CHAIN_ID>  (1671) 
A A A A A A A A A A A Z Z Z Z Z Z Z Z Z

>  <atom.prop.IS_HEAVY_ATOM>  (1671) 
1 0 0 0 1 0 0 1 0 0 0 1 0 0 0 1 1 0 0 0

>  <DIFUSE_FUNC_ATOM>  (1671) 
n/a

>  <FINAL_SINGLE_POINT_ENERGY>  (1671) 
0

>  <NONCOV_INTER_ENERGY_QM>  (1671) 
0

>  <FF_Energy>  (1671) 
-4.7

>  <QM_Energy>  (1671) 
-10.31

>  <source>  (1671) 
ETAM_MSM

>  <Index>  (1671) 
10637

$$$$
ETAM-pdb6jr6-B-LYS-162:MSM-pdb6jr6-B-MET-175
     RDKit          3D

 20 18  0  0  0  0  0  0  0  0999 V2000
    1.2538    0.8618    0.0000 C   0  0  0  0  0  0  0  0  0  0  0  0
    2.0451    0.2686   -0.1107 H   0  0  0  0  0  0  0  0  0  0  0  0
    1.3046    1.3461    0.8676 H   0  0  0  0  0  0  0  0  0  0  0  0
    1.2415    1.5892   -0.8116 H   0  0  0  0  0  0  0  0  0  0  0  0
    0.0000    0.0000    0.0000 C   0  0  0  0  0  0  0  0  0  0  0  0
    0.0114   -0.5904   -0.8162 H   0  0  0  0  0  0  0  0  0  0  0  0
    0.0118   -0.5905    0.8162 H   0  0  0  0  0  0  0  0  0  0  0  0
   -1.2538    0.8039    0.0000 N   0  0  0  0  0  4  0  0  0  0  0  0
   -1.0669    1.7080    0.3817 H   0  0  0  0  0  0  0  0  0  0  0  0
   -1.5874    0.8982   -0.9376 H   0  0  0  0  0  0  0  0  0  0  0  0
   -1.9437    0.3409    0.5561 H   0  0  0  0  0  0  0  0  0  0  0  0
   -2.7676   -4.0694    0.3088 C   0  0  0  0  0  0  0  0  0  0  0  0
   -2.3769   -4.0315    1.2578 H   0  0  0  0  0  0  0  0  0  0  0  0
   -2.6453   -5.0438    0.0059 H   0  0  0  0  0  0  0  0  0  0  0  0
   -3.8347   -3.8549    0.3656 H   0  0  0  0  0  0  0  0  0  0  0  0
   -1.8758   -2.9461   -0.7909 S   0  0  0  0  0  0  0  0  0  0  0  0
   -0.2125   -3.5273   -0.5159 C   0  0  0  0  0  0  0  0  0  0  0  0
    0.2010   -3.7988   -1.3881 H   0  0  0  0  0  0  0  0  0  0  0  0
    0.3390   -2.7982   -0.1037 H   0  0  0  0  0  0  0  0  0  0  0  0
   -0.2263   -4.3171    0.1015 H   0  0  0  0  0  0  0  0  0  0  0  0
  1  5  1  0
  5  8  1  0
  1  2  1  0
  1  3  1  0
  1  4  1  0
  5  6  1  0
  5  7  1  0
  8  9  1  0
  8 10  1  0
  8 11  1  0
 12 16  1  0
 16 17  1  0
 12 13  1  0
 12 14  1  0
 12 15  1  0
 17 18  1  0
 17 19  1  0
 17 20  1  0
M  CHG  1   8   1
M  END
>  <PDB_ID>  (1672) 
pdb6jr6

>  <RESIDUE_NAME>  (1672) 
LYS   MET

>  <FRAG_NAME>  (1672) 
ETAM   MSM

>  <FRAG_ATOM_NUM>  (1672) 
fragi: 11  fragj: 9

>  <atom.prop.CHAIN_ID>  (1672) 
A A A A A A A A A A A Z Z Z Z Z Z Z Z Z

>  <atom.prop.IS_HEAVY_ATOM>  (1672) 
1 0 0 0 1 0 0 1 0 0 0 1 0 0 0 1 1 0 0 0

>  <DIFUSE_FUNC_ATOM>  (1672) 
n/a

>  <FINAL_SINGLE_POINT_ENERGY>  (1672) 
0

>  <NONCOV_INTER_ENERGY_QM>  (1672) 
0

>  <FF_Energy>  (1672) 
-4.06

>  <QM_Energy>  (1672) 
-9.48

>  <source>  (1672) 
ETAM_MSM

>  <Index>  (1672) 
10638

$$$$
ETAM-pdb6jr6-C-LYS-162:MSM-pdb6jr6-C-MET-175
     RDKit          3D

 20 18  0  0  0  0  0  0  0  0999 V2000
    1.2556    0.8670    0.0000 C   0  0  0  0  0  0  0  0  0  0  0  0
    2.0465    0.2744   -0.0361 H   0  0  0  0  0  0  0  0  0  0  0  0
    1.2560    1.4193    0.8205 H   0  0  0  0  0  0  0  0  0  0  0  0
    1.2602    1.5215   -0.8716 H   0  0  0  0  0  0  0  0  0  0  0  0
    0.0000    0.0000    0.0000 C   0  0  0  0  0  0  0  0  0  0  0  0
    0.0066   -0.5833   -0.8161 H   0  0  0  0  0  0  0  0  0  0  0  0
    0.0064   -0.5827    0.8161 H   0  0  0  0  0  0  0  0  0  0  0  0
   -1.2556    0.8227    0.0000 N   0  0  0  0  0  4  0  0  0  0  0  0
   -1.6052    0.8826    0.9320 H   0  0  0  0  0  0  0  0  0  0  0  0
   -1.0462    1.7360   -0.3431 H   0  0  0  0  0  0  0  0  0  0  0  0
   -1.9317    0.3849   -0.5892 H   0  0  0  0  0  0  0  0  0  0  0  0
   -3.0252   -3.7728    0.8054 C   0  0  0  0  0  0  0  0  0  0  0  0
   -2.6552   -3.6669    1.7516 H   0  0  0  0  0  0  0  0  0  0  0  0
   -2.9462   -4.7664    0.5799 H   0  0  0  0  0  0  0  0  0  0  0  0
   -4.0828   -3.5096    0.8219 H   0  0  0  0  0  0  0  0  0  0  0  0
   -2.1125   -2.7689   -0.3626 S   0  0  0  0  0  0  0  0  0  0  0  0
   -0.5129   -3.5654   -0.2951 C   0  0  0  0  0  0  0  0  0  0  0  0
    0.2097   -2.8794   -0.3972 H   0  0  0  0  0  0  0  0  0  0  0  0
   -0.4049   -4.0309    0.5858 H   0  0  0  0  0  0  0  0  0  0  0  0
   -0.4385   -4.2360   -1.0351 H   0  0  0  0  0  0  0  0  0  0  0  0
  1  5  1  0
  5  8  1  0
  1  2  1  0
  1  3  1  0
  1  4  1  0
  5  6  1  0
  5  7  1  0
  8  9  1  0
  8 10  1  0
  8 11  1  0
 12 16  1  0
 16 17  1  0
 12 13  1  0
 12 14  1  0
 12 15  1  0
 17 18  1  0
 17 19  1  0
 17 20  1  0
M  CHG  1   8   1
M  END
>  <PDB_ID>  (1673) 
pdb6jr6

>  <RESIDUE_NAME>  (1673) 
LYS   MET

>  <FRAG_NAME>  (1673) 
ETAM   MSM

>  <FRAG_ATOM_NUM>  (1673) 
fragi: 11  fragj: 9

>  <atom.prop.CHAIN_ID>  (1673) 
A A A A A A A A A A A Z Z Z Z Z Z Z Z Z

>  <atom.prop.IS_HEAVY_ATOM>  (1673) 
1 0 0 0 1 0 0 1 0 0 0 1 0 0 0 1 1 0 0 0

>  <DIFUSE_FUNC_ATOM>  (1673) 
n/a

>  <FINAL_SINGLE_POINT_ENERGY>  (1673) 
0

>  <NONCOV_INTER_ENERGY_QM>  (1673) 
0

>  <FF_Energy>  (1673) 
-4.65

>  <QM_Energy>  (1673) 
-10.94

>  <source>  (1673) 
ETAM_MSM

>  <Index>  (1673) 
10639

$$$$
ETAM-pdb6jr6-D-LYS-162:MSM-pdb6jr6-D-MET-175
     RDKit          3D

 20 18  0  0  0  0  0  0  0  0999 V2000
    1.2715    0.8529    0.0000 C   0  0  0  0  0  0  0  0  0  0  0  0
    2.0590    0.2376   -0.0471 H   0  0  0  0  0  0  0  0  0  0  0  0
    1.3010    1.3666    0.8575 H   0  0  0  0  0  0  0  0  0  0  0  0
    1.3134    1.5506   -0.8364 H   0  0  0  0  0  0  0  0  0  0  0  0
    0.0000    0.0000    0.0000 C   0  0  0  0  0  0  0  0  0  0  0  0
    0.0154   -0.6000   -0.8167 H   0  0  0  0  0  0  0  0  0  0  0  0
    0.0155   -0.6000    0.8160 H   0  0  0  0  0  0  0  0  0  0  0  0
   -1.2715    0.7851   -0.0000 N   0  0  0  0  0  4  0  0  0  0  0  0
   -1.0787    1.7220   -0.2849 H   0  0  0  0  0  0  0  0  0  0  0  0
   -1.9164    0.3654   -0.6358 H   0  0  0  0  0  0  0  0  0  0  0  0
   -1.6576    0.7855    0.9215 H   0  0  0  0  0  0  0  0  0  0  0  0
   -2.9600   -3.8808    0.3936 C   0  0  0  0  0  0  0  0  0  0  0  0
   -2.5989   -3.8103    1.3542 H   0  0  0  0  0  0  0  0  0  0  0  0
   -2.8431   -4.8703    0.1371 H   0  0  0  0  0  0  0  0  0  0  0  0
   -4.0251   -3.6496    0.4069 H   0  0  0  0  0  0  0  0  0  0  0  0
   -2.0295   -2.8217   -0.7154 S   0  0  0  0  0  0  0  0  0  0  0  0
   -0.3901   -3.5254   -0.5103 C   0  0  0  0  0  0  0  0  0  0  0  0
   -0.4272   -4.5108   -0.6761 H   0  0  0  0  0  0  0  0  0  0  0  0
    0.2388   -3.1007   -1.1620 H   0  0  0  0  0  0  0  0  0  0  0  0
   -0.0689   -3.3566    0.4222 H   0  0  0  0  0  0  0  0  0  0  0  0
  1  5  1  0
  5  8  1  0
  1  2  1  0
  1  3  1  0
  1  4  1  0
  5  6  1  0
  5  7  1  0
  8  9  1  0
  8 10  1  0
  8 11  1  0
 12 16  1  0
 16 17  1  0
 12 13  1  0
 12 14  1  0
 12 15  1  0
 17 18  1  0
 17 19  1  0
 17 20  1  0
M  CHG  1   8   1
M  END
>  <PDB_ID>  (1674) 
pdb6jr6

>  <RESIDUE_NAME>  (1674) 
LYS   MET

>  <FRAG_NAME>  (1674) 
ETAM   MSM

>  <FRAG_ATOM_NUM>  (1674) 
fragi: 11  fragj: 9

>  <atom.prop.CHAIN_ID>  (1674) 
A A A A A A A A A A A Z Z Z Z Z Z Z Z Z

>  <atom.prop.IS_HEAVY_ATOM>  (1674) 
1 0 0 0 1 0 0 1 0 0 0 1 0 0 0 1 1 0 0 0

>  <DIFUSE_FUNC_ATOM>  (1674) 
n/a

>  <FINAL_SINGLE_POINT_ENERGY>  (1674) 
0

>  <NONCOV_INTER_ENERGY_QM>  (1674) 
0

>  <FF_Energy>  (1674) 
-4.7

>  <QM_Energy>  (1674) 
-10.85

>  <source>  (1674) 
ETAM_MSM

>  <Index>  (1674) 
10640

$$$$
ETAM-pdb5j7e-B-LYS-112:MSM-pdb5j7e-B-MET-92
     RDKit          3D

 20 18  0  0  0  0  0  0  0  0999 V2000
    1.2544    0.8625   -0.0000 C   0  0  0  0  0  0  0  0  0  0  0  0
    2.0502    0.2648   -0.0253 H   0  0  0  0  0  0  0  0  0  0  0  0
    1.2620    1.4097    0.8317 H   0  0  0  0  0  0  0  0  0  0  0  0
    1.2885    1.5294   -0.8614 H   0  0  0  0  0  0  0  0  0  0  0  0
    0.0000    0.0000    0.0000 C   0  0  0  0  0  0  0  0  0  0  0  0
    0.0133   -0.5920   -0.8161 H   0  0  0  0  0  0  0  0  0  0  0  0
    0.0131   -0.5918    0.8168 H   0  0  0  0  0  0  0  0  0  0  0  0
   -1.2544    0.8001   -0.0000 N   0  0  0  0  0  4  0  0  0  0  0  0
   -1.4033    1.1841   -0.9107 H   0  0  0  0  0  0  0  0  0  0  0  0
   -2.0240    0.2107    0.2436 H   0  0  0  0  0  0  0  0  0  0  0  0
   -1.1757    1.5406    0.6674 H   0  0  0  0  0  0  0  0  0  0  0  0
   -3.7003    1.6149   -2.8674 C   0  0  0  0  0  0  0  0  0  0  0  0
   -2.8514    1.2813   -3.3567 H   0  0  0  0  0  0  0  0  0  0  0  0
   -3.3940    2.4839   -2.3959 H   0  0  0  0  0  0  0  0  0  0  0  0
   -4.4438    1.8789   -3.6195 H   0  0  0  0  0  0  0  0  0  0  0  0
   -4.2577    0.4006   -1.6614 S   0  0  0  0  0  0  0  0  0  0  0  0
   -3.6705   -1.1207   -2.4280 C   0  0  0  0  0  0  0  0  0  0  0  0
   -2.7805   -0.9550   -2.8504 H   0  0  0  0  0  0  0  0  0  0  0  0
   -3.5845   -1.8300   -1.7301 H   0  0  0  0  0  0  0  0  0  0  0  0
   -4.3240   -1.4129   -3.1252 H   0  0  0  0  0  0  0  0  0  0  0  0
  1  5  1  0
  5  8  1  0
  1  2  1  0
  1  3  1  0
  1  4  1  0
  5  6  1  0
  5  7  1  0
  8  9  1  0
  8 10  1  0
  8 11  1  0
 12 16  1  0
 16 17  1  0
 12 13  1  0
 12 14  1  0
 12 15  1  0
 17 18  1  0
 17 19  1  0
 17 20  1  0
M  CHG  1   8   1
M  END
>  <PDB_ID>  (1675) 
pdb5j7e

>  <RESIDUE_NAME>  (1675) 
LYS   MET

>  <FRAG_NAME>  (1675) 
ETAM   MSM

>  <FRAG_ATOM_NUM>  (1675) 
fragi: 11  fragj: 9

>  <atom.prop.CHAIN_ID>  (1675) 
A A A A A A A A A A A Z Z Z Z Z Z Z Z Z

>  <atom.prop.IS_HEAVY_ATOM>  (1675) 
1 0 0 0 1 0 0 1 0 0 0 1 0 0 0 1 1 0 0 0

>  <DIFUSE_FUNC_ATOM>  (1675) 
n/a

>  <FINAL_SINGLE_POINT_ENERGY>  (1675) 
0

>  <NONCOV_INTER_ENERGY_QM>  (1675) 
0

>  <FF_Energy>  (1675) 
-3.86

>  <QM_Energy>  (1675) 
-10.25

>  <source>  (1675) 
ETAM_MSM

>  <Index>  (1675) 
10650

$$$$
ETAM-pdb5j7e-D-LYS-112:MSM-pdb5j7e-D-MET-92
     RDKit          3D

 20 18  0  0  0  0  0  0  0  0999 V2000
    1.2565    0.8652    0.0000 C   0  0  0  0  0  0  0  0  0  0  0  0
    2.0464    0.2683   -0.0671 H   0  0  0  0  0  0  0  0  0  0  0  0
    1.2782    1.3841    0.8453 H   0  0  0  0  0  0  0  0  0  0  0  0
    1.2511    1.5529   -0.8457 H   0  0  0  0  0  0  0  0  0  0  0  0
    0.0000    0.0000    0.0000 C   0  0  0  0  0  0  0  0  0  0  0  0
    0.0116   -0.5880   -0.8161 H   0  0  0  0  0  0  0  0  0  0  0  0
    0.0114   -0.5885    0.8160 H   0  0  0  0  0  0  0  0  0  0  0  0
   -1.2565    0.8080   -0.0000 N   0  0  0  0  0  4  0  0  0  0  0  0
   -1.9523    0.3349   -0.5386 H   0  0  0  0  0  0  0  0  0  0  0  0
   -1.5754    0.9194    0.9393 H   0  0  0  0  0  0  0  0  0  0  0  0
   -1.0720    1.7038   -0.4013 H   0  0  0  0  0  0  0  0  0  0  0  0
   -0.5294   -3.2505   -0.3607 C   0  0  0  0  0  0  0  0  0  0  0  0
    0.0820   -3.0580    0.4466 H   0  0  0  0  0  0  0  0  0  0  0  0
   -0.1392   -2.6789   -1.1256 H   0  0  0  0  0  0  0  0  0  0  0  0
   -0.4265   -4.3022   -0.6281 H   0  0  0  0  0  0  0  0  0  0  0  0
   -2.2348   -2.7385    0.0028 S   0  0  0  0  0  0  0  0  0  0  0  0
   -2.3688   -3.2226    1.7317 C   0  0  0  0  0  0  0  0  0  0  0  0
   -3.1677   -3.8122    1.8494 H   0  0  0  0  0  0  0  0  0  0  0  0
   -1.5438   -3.7180    2.0021 H   0  0  0  0  0  0  0  0  0  0  0  0
   -2.4695   -2.4048    2.2971 H   0  0  0  0  0  0  0  0  0  0  0  0
  1  5  1  0
  5  8  1  0
  1  2  1  0
  1  3  1  0
  1  4  1  0
  5  6  1  0
  5  7  1  0
  8  9  1  0
  8 10  1  0
  8 11  1  0
 12 16  1  0
 16 17  1  0
 12 13  1  0
 12 14  1  0
 12 15  1  0
 17 18  1  0
 17 19  1  0
 17 20  1  0
M  CHG  1   8   1
M  END
>  <PDB_ID>  (1676) 
pdb5j7e

>  <RESIDUE_NAME>  (1676) 
LYS   MET

>  <FRAG_NAME>  (1676) 
ETAM   MSM

>  <FRAG_ATOM_NUM>  (1676) 
fragi: 11  fragj: 9

>  <atom.prop.CHAIN_ID>  (1676) 
A A A A A A A A A A A Z Z Z Z Z Z Z Z Z

>  <atom.prop.IS_HEAVY_ATOM>  (1676) 
1 0 0 0 1 0 0 1 0 0 0 1 0 0 0 1 1 0 0 0

>  <DIFUSE_FUNC_ATOM>  (1676) 
n/a

>  <FINAL_SINGLE_POINT_ENERGY>  (1676) 
0

>  <NONCOV_INTER_ENERGY_QM>  (1676) 
0

>  <FF_Energy>  (1676) 
-3.27

>  <QM_Energy>  (1676) 
-9.91

>  <source>  (1676) 
ETAM_MSM

>  <Index>  (1676) 
10652

$$$$
ETAM-pdb5j7e-F-LYS-112:MSM-pdb5j7e-F-MET-92
     RDKit          3D

 20 18  0  0  0  0  0  0  0  0999 V2000
    1.2559    0.8658    0.0000 C   0  0  0  0  0  0  0  0  0  0  0  0
    2.0476    0.2691    0.0740 H   0  0  0  0  0  0  0  0  0  0  0  0
    1.2104    1.4834    0.7774 H   0  0  0  0  0  0  0  0  0  0  0  0
    1.3323    1.4493   -0.9174 H   0  0  0  0  0  0  0  0  0  0  0  0
    0.0000    0.0000    0.0000 C   0  0  0  0  0  0  0  0  0  0  0  0
    0.0119   -0.5878   -0.8160 H   0  0  0  0  0  0  0  0  0  0  0  0
    0.0108   -0.5879    0.8161 H   0  0  0  0  0  0  0  0  0  0  0  0
   -1.2559    0.8091   -0.0000 N   0  0  0  0  0  4  0  0  0  0  0  0
   -1.4487    1.1161   -0.9300 H   0  0  0  0  0  0  0  0  0  0  0  0
   -2.0107    0.2456    0.3324 H   0  0  0  0  0  0  0  0  0  0  0  0
   -1.1377    1.6002    0.5985 H   0  0  0  0  0  0  0  0  0  0  0  0
   -2.0620    0.3815    3.0178 C   0  0  0  0  0  0  0  0  0  0  0  0
   -2.3676    1.1437    2.4017 H   0  0  0  0  0  0  0  0  0  0  0  0
   -1.0370    0.4363    3.0283 H   0  0  0  0  0  0  0  0  0  0  0  0
   -2.4305    0.5807    4.0241 H   0  0  0  0  0  0  0  0  0  0  0  0
   -2.6059   -1.2180    2.3655 S   0  0  0  0  0  0  0  0  0  0  0  0
   -4.1071   -0.7417    1.5001 C   0  0  0  0  0  0  0  0  0  0  0  0
   -4.7255   -0.2806    2.1362 H   0  0  0  0  0  0  0  0  0  0  0  0
   -3.8767   -0.1218    0.7503 H   0  0  0  0  0  0  0  0  0  0  0  0
   -4.5528   -1.5585    1.1334 H   0  0  0  0  0  0  0  0  0  0  0  0
  1  5  1  0
  5  8  1  0
  1  2  1  0
  1  3  1  0
  1  4  1  0
  5  6  1  0
  5  7  1  0
  8  9  1  0
  8 10  1  0
  8 11  1  0
 12 16  1  0
 16 17  1  0
 12 13  1  0
 12 14  1  0
 12 15  1  0
 17 18  1  0
 17 19  1  0
 17 20  1  0
M  CHG  1   8   1
M  END
>  <PDB_ID>  (1677) 
pdb5j7e

>  <RESIDUE_NAME>  (1677) 
LYS   MET

>  <FRAG_NAME>  (1677) 
ETAM   MSM

>  <FRAG_ATOM_NUM>  (1677) 
fragi: 11  fragj: 9

>  <atom.prop.CHAIN_ID>  (1677) 
A A A A A A A A A A A Z Z Z Z Z Z Z Z Z

>  <atom.prop.IS_HEAVY_ATOM>  (1677) 
1 0 0 0 1 0 0 1 0 0 0 1 0 0 0 1 1 0 0 0

>  <DIFUSE_FUNC_ATOM>  (1677) 
n/a

>  <FINAL_SINGLE_POINT_ENERGY>  (1677) 
0

>  <NONCOV_INTER_ENERGY_QM>  (1677) 
0

>  <FF_Energy>  (1677) 
-1.37

>  <QM_Energy>  (1677) 
-8.1

>  <source>  (1677) 
ETAM_MSM

>  <Index>  (1677) 
10653

$$$$
ETAM-pdb5j60-B-LYS-30:MSM-pdb5j60-B-MET-1
     RDKit          3D

 20 18  0  0  0  0  0  0  0  0999 V2000
    1.2542    0.8890    0.0000 C   0  0  0  0  0  0  0  0  0  0  0  0
    1.2973    1.3473    0.8534 H   0  0  0  0  0  0  0  0  0  0  0  0
    1.1659    1.5333   -0.7204 H   0  0  0  0  0  0  0  0  0  0  0  0
    2.1700    0.3158   -0.1444 H   0  0  0  0  0  0  0  0  0  0  0  0
    0.0000    0.0000    0.0000 C   0  0  0  0  0  0  0  0  0  0  0  0
    0.0053   -0.5561   -0.7949 H   0  0  0  0  0  0  0  0  0  0  0  0
    0.0053   -0.5553    0.7950 H   0  0  0  0  0  0  0  0  0  0  0  0
   -1.2542    0.7955    0.0000 N   0  0  0  0  0  4  0  0  0  0  0  0
   -1.9593    0.2524   -0.0001 H   0  0  0  0  0  0  0  0  0  0  0  0
   -1.2869    1.3125    0.7245 H   0  0  0  0  0  0  0  0  0  0  0  0
   -1.2870    1.3118   -0.7242 H   0  0  0  0  0  0  0  0  0  0  0  0
   -4.5026    5.1558    0.6126 C   0  0  0  0  0  0  0  0  0  0  0  0
   -4.2429    5.5242   -0.2700 H   0  0  0  0  0  0  0  0  0  0  0  0
   -4.4534    5.8521    1.3159 H   0  0  0  0  0  0  0  0  0  0  0  0
   -5.5149    4.7551    0.5605 H   0  0  0  0  0  0  0  0  0  0  0  0
   -3.4252    3.7378    1.0482 S   0  0  0  0  0  0  0  0  0  0  0  0
   -4.1301    3.2710    2.6289 C   0  0  0  0  0  0  0  0  0  0  0  0
   -3.4455    3.3887    3.3489 H   0  0  0  0  0  0  0  0  0  0  0  0
   -4.9221    3.8500    2.8260 H   0  0  0  0  0  0  0  0  0  0  0  0
   -4.4179    2.3128    2.5973 H   0  0  0  0  0  0  0  0  0  0  0  0
  1  5  1  0
  5  8  1  0
  1  2  1  0
  1  3  1  0
  1  4  1  0
  5  6  1  0
  5  7  1  0
  8  9  1  0
  8 10  1  0
  8 11  1  0
 12 16  1  0
 16 17  1  0
 12 13  1  0
 12 14  1  0
 12 15  1  0
 17 18  1  0
 17 19  1  0
 17 20  1  0
M  CHG  1   8   1
M  END
>  <PDB_ID>  (1678) 
pdb5j60

>  <RESIDUE_NAME>  (1678) 
LYS   MET

>  <FRAG_NAME>  (1678) 
ETAM   MSM

>  <FRAG_ATOM_NUM>  (1678) 
fragi: 11  fragj: 9

>  <atom.prop.CHAIN_ID>  (1678) 
A A A A A A A A A A A Z Z Z Z Z Z Z Z Z

>  <atom.prop.IS_HEAVY_ATOM>  (1678) 
1 0 0 0 1 0 0 1 0 0 0 1 0 0 0 1 1 0 0 0

>  <DIFUSE_FUNC_ATOM>  (1678) 
n/a

>  <FINAL_SINGLE_POINT_ENERGY>  (1678) 
0

>  <NONCOV_INTER_ENERGY_QM>  (1678) 
0

>  <FF_Energy>  (1678) 
-4.38

>  <QM_Energy>  (1678) 
-9.77

>  <source>  (1678) 
ETAM_MSM

>  <Index>  (1678) 
10656

$$$$
ETAM-pdb6k3h-D-LYS-152:MSM-pdb6k3h-D-MET-1
     RDKit          3D

 20 18  0  0  0  0  0  0  0  0999 V2000
    1.2268    0.8759    0.0000 C   0  0  0  0  0  0  0  0  0  0  0  0
    1.3167    1.3148   -0.8861 H   0  0  0  0  0  0  0  0  0  0  0  0
    2.0256    0.3214    0.2002 H   0  0  0  0  0  0  0  0  0  0  0  0
    1.1517    1.6541    0.7596 H   0  0  0  0  0  0  0  0  0  0  0  0
    0.0000    0.0000    0.0000 C   0  0  0  0  0  0  0  0  0  0  0  0
    0.0037   -0.5744   -0.8164 H   0  0  0  0  0  0  0  0  0  0  0  0
    0.0037   -0.5746    0.8160 H   0  0  0  0  0  0  0  0  0  0  0  0
   -1.2268    0.8383    0.0000 N   0  0  0  0  0  4  0  0  0  0  0  0
   -1.9164    0.4194   -0.5908 H   0  0  0  0  0  0  0  0  0  0  0  0
   -1.5831    0.9076    0.9320 H   0  0  0  0  0  0  0  0  0  0  0  0
   -1.0055    1.7525   -0.3410 H   0  0  0  0  0  0  0  0  0  0  0  0
   -2.9299   -2.8438   -0.0468 C   0  0  0  0  0  0  0  0  0  0  0  0
   -3.2899   -3.6285    0.5265 H   0  0  0  0  0  0  0  0  0  0  0  0
   -1.9319   -3.0798   -0.1964 H   0  0  0  0  0  0  0  0  0  0  0  0
   -3.4302   -2.8826   -1.0145 H   0  0  0  0  0  0  0  0  0  0  0  0
   -3.0830   -1.2698    0.8593 S   0  0  0  0  0  0  0  0  0  0  0  0
   -4.1904   -1.7034    2.2089 C   0  0  0  0  0  0  0  0  0  0  0  0
   -5.1300   -1.7395    1.8695 H   0  0  0  0  0  0  0  0  0  0  0  0
   -3.9332   -2.5971    2.5758 H   0  0  0  0  0  0  0  0  0  0  0  0
   -4.1217   -1.0136    2.9296 H   0  0  0  0  0  0  0  0  0  0  0  0
  1  5  1  0
  5  8  1  0
  1  2  1  0
  1  3  1  0
  1  4  1  0
  5  6  1  0
  5  7  1  0
  8  9  1  0
  8 10  1  0
  8 11  1  0
 12 16  1  0
 16 17  1  0
 12 13  1  0
 12 14  1  0
 12 15  1  0
 17 18  1  0
 17 19  1  0
 17 20  1  0
M  CHG  1   8   1
M  END
>  <PDB_ID>  (1679) 
pdb6k3h

>  <RESIDUE_NAME>  (1679) 
LYS   MET

>  <FRAG_NAME>  (1679) 
ETAM   MSM

>  <FRAG_ATOM_NUM>  (1679) 
fragi: 11  fragj: 9

>  <atom.prop.CHAIN_ID>  (1679) 
A A A A A A A A A A A Z Z Z Z Z Z Z Z Z

>  <atom.prop.IS_HEAVY_ATOM>  (1679) 
1 0 0 0 1 0 0 1 0 0 0 1 0 0 0 1 1 0 0 0

>  <DIFUSE_FUNC_ATOM>  (1679) 
n/a

>  <FINAL_SINGLE_POINT_ENERGY>  (1679) 
0

>  <NONCOV_INTER_ENERGY_QM>  (1679) 
0

>  <FF_Energy>  (1679) 
-2.36

>  <QM_Energy>  (1679) 
-12.85

>  <source>  (1679) 
ETAM_MSM

>  <Index>  (1679) 
10666

$$$$
ETAM-pdb5jcd-A-LYS-93:MSM-pdb5jcd-A-MET-173
     RDKit          3D

 20 18  0  0  0  0  0  0  0  0999 V2000
    1.2416    0.8579   -0.0000 C   0  0  0  0  0  0  0  0  0  0  0  0
    2.0486    0.2622    0.0502 H   0  0  0  0  0  0  0  0  0  0  0  0
    1.2262    1.4517    0.8090 H   0  0  0  0  0  0  0  0  0  0  0  0
    1.3384    1.4879   -0.8842 H   0  0  0  0  0  0  0  0  0  0  0  0
    0.0000    0.0000    0.0000 C   0  0  0  0  0  0  0  0  0  0  0  0
    0.0147   -0.5958   -0.8165 H   0  0  0  0  0  0  0  0  0  0  0  0
    0.0140   -0.5954    0.8163 H   0  0  0  0  0  0  0  0  0  0  0  0
   -1.2416    0.7937    0.0000 N   0  0  0  0  0  4  0  0  0  0  0  0
   -1.7412    0.6415    0.8551 H   0  0  0  0  0  0  0  0  0  0  0  0
   -1.0213    1.7682   -0.0838 H   0  0  0  0  0  0  0  0  0  0  0  0
   -1.8197    0.5193   -0.7718 H   0  0  0  0  0  0  0  0  0  0  0  0
   -6.2895    1.1156    0.0726 C   0  0  0  0  0  0  0  0  0  0  0  0
   -6.4760    1.1079   -0.9438 H   0  0  0  0  0  0  0  0  0  0  0  0
   -6.8877    1.8762    0.4360 H   0  0  0  0  0  0  0  0  0  0  0  0
   -6.6692    0.1787    0.4805 H   0  0  0  0  0  0  0  0  0  0  0  0
   -4.5682    1.4178    0.4175 S   0  0  0  0  0  0  0  0  0  0  0  0
   -4.4976    1.1748    2.1843 C   0  0  0  0  0  0  0  0  0  0  0  0
   -4.6427    2.0494    2.6528 H   0  0  0  0  0  0  0  0  0  0  0  0
   -5.2091    0.5283    2.4660 H   0  0  0  0  0  0  0  0  0  0  0  0
   -3.6008    0.8093    2.4402 H   0  0  0  0  0  0  0  0  0  0  0  0
  1  5  1  0
  5  8  1  0
  1  2  1  0
  1  3  1  0
  1  4  1  0
  5  6  1  0
  5  7  1  0
  8  9  1  0
  8 10  1  0
  8 11  1  0
 12 16  1  0
 16 17  1  0
 12 13  1  0
 12 14  1  0
 12 15  1  0
 17 18  1  0
 17 19  1  0
 17 20  1  0
M  CHG  1   8   1
M  END
>  <PDB_ID>  (1680) 
pdb5jcd

>  <RESIDUE_NAME>  (1680) 
LYS   MET

>  <FRAG_NAME>  (1680) 
ETAM   MSM

>  <FRAG_ATOM_NUM>  (1680) 
fragi: 11  fragj: 9

>  <atom.prop.CHAIN_ID>  (1680) 
A A A A A A A A A A A Z Z Z Z Z Z Z Z Z

>  <atom.prop.IS_HEAVY_ATOM>  (1680) 
1 0 0 0 1 0 0 1 0 0 0 1 0 0 0 1 1 0 0 0

>  <DIFUSE_FUNC_ATOM>  (1680) 
n/a

>  <FINAL_SINGLE_POINT_ENERGY>  (1680) 
0

>  <NONCOV_INTER_ENERGY_QM>  (1680) 
0

>  <FF_Energy>  (1680) 
-4.69

>  <QM_Energy>  (1680) 
-10.46

>  <source>  (1680) 
ETAM_MSM

>  <Index>  (1680) 
10688

$$$$
ETAM-pdb5jcb-F-LYS-28:MSM-pdb5jcb-F-MET-1
     RDKit          3D

 20 18  0  0  0  0  0  0  0  0999 V2000
    1.2473    0.8711    0.0000 C   0  0  0  0  0  0  0  0  0  0  0  0
    1.2550    1.4164    0.8342 H   0  0  0  0  0  0  0  0  0  0  0  0
    1.2185    1.4666   -0.7976 H   0  0  0  0  0  0  0  0  0  0  0  0
    2.1599    0.2764   -0.0378 H   0  0  0  0  0  0  0  0  0  0  0  0
    0.0000    0.0000    0.0000 C   0  0  0  0  0  0  0  0  0  0  0  0
    0.0097   -0.5826   -0.8168 H   0  0  0  0  0  0  0  0  0  0  0  0
    0.0098   -0.5825    0.8161 H   0  0  0  0  0  0  0  0  0  0  0  0
   -1.2473    0.8187    0.0000 N   0  0  0  0  0  4  0  0  0  0  0  0
   -1.0624    1.7006   -0.4301 H   0  0  0  0  0  0  0  0  0  0  0  0
   -1.9577    0.3368   -0.5117 H   0  0  0  0  0  0  0  0  0  0  0  0
   -1.5484    0.9602    0.9424 H   0  0  0  0  0  0  0  0  0  0  0  0
    1.4348    2.1810   -3.5888 C   0  0  0  0  0  0  0  0  0  0  0  0
    1.7542    1.2271   -3.7666 H   0  0  0  0  0  0  0  0  0  0  0  0
    2.2288    2.6728   -3.1762 H   0  0  0  0  0  0  0  0  0  0  0  0
    1.1980    2.6480   -4.5449 H   0  0  0  0  0  0  0  0  0  0  0  0
    0.0225    2.1882   -2.4682 S   0  0  0  0  0  0  0  0  0  0  0  0
   -1.2404    1.4815   -3.5356 C   0  0  0  0  0  0  0  0  0  0  0  0
   -2.1272    1.5248   -3.0754 H   0  0  0  0  0  0  0  0  0  0  0  0
   -1.2809    1.9994   -4.3902 H   0  0  0  0  0  0  0  0  0  0  0  0
   -1.0130    0.5277   -3.7331 H   0  0  0  0  0  0  0  0  0  0  0  0
  1  5  1  0
  5  8  1  0
  1  2  1  0
  1  3  1  0
  1  4  1  0
  5  6  1  0
  5  7  1  0
  8  9  1  0
  8 10  1  0
  8 11  1  0
 12 16  1  0
 16 17  1  0
 12 13  1  0
 12 14  1  0
 12 15  1  0
 17 18  1  0
 17 19  1  0
 17 20  1  0
M  CHG  1   8   1
M  END
>  <PDB_ID>  (1681) 
pdb5jcb

>  <RESIDUE_NAME>  (1681) 
LYS   MET

>  <FRAG_NAME>  (1681) 
ETAM   MSM

>  <FRAG_ATOM_NUM>  (1681) 
fragi: 11  fragj: 9

>  <atom.prop.CHAIN_ID>  (1681) 
A A A A A A A A A A A Z Z Z Z Z Z Z Z Z

>  <atom.prop.IS_HEAVY_ATOM>  (1681) 
1 0 0 0 1 0 0 1 0 0 0 1 0 0 0 1 1 0 0 0

>  <DIFUSE_FUNC_ATOM>  (1681) 
n/a

>  <FINAL_SINGLE_POINT_ENERGY>  (1681) 
0

>  <NONCOV_INTER_ENERGY_QM>  (1681) 
0

>  <FF_Energy>  (1681) 
14.39

>  <QM_Energy>  (1681) 
-4.26

>  <source>  (1681) 
ETAM_MSM

>  <Index>  (1681) 
10692

$$$$
ETAM-pdb6k8x-A-LYS-224:MSM-pdb6k8x-A-MET-213
     RDKit          3D

 20 18  0  0  0  0  0  0  0  0999 V2000
    1.2170    0.8825    0.0000 C   0  0  0  0  0  0  0  0  0  0  0  0
    1.0778    1.6401    0.6250 H   0  0  0  0  0  0  0  0  0  0  0  0
    1.3886    1.2101   -0.9196 H   0  0  0  0  0  0  0  0  0  0  0  0
    2.0969    0.3313    0.3318 H   0  0  0  0  0  0  0  0  0  0  0  0
    0.0000    0.0000    0.0000 C   0  0  0  0  0  0  0  0  0  0  0  0
    0.0182   -0.5807   -0.8164 H   0  0  0  0  0  0  0  0  0  0  0  0
    0.0171   -0.5815    0.8164 H   0  0  0  0  0  0  0  0  0  0  0  0
   -1.2170    0.8119    0.0000 N   0  0  0  0  0  4  0  0  0  0  0  0
   -1.7172    0.6824    0.8612 H   0  0  0  0  0  0  0  0  0  0  0  0
   -0.9827    1.7828   -0.0967 H   0  0  0  0  0  0  0  0  0  0  0  0
   -1.8106    0.5431   -0.7643 H   0  0  0  0  0  0  0  0  0  0  0  0
   -5.1790   -0.0899   -0.3517 C   0  0  0  0  0  0  0  0  0  0  0  0
   -4.8716   -0.8731   -0.9375 H   0  0  0  0  0  0  0  0  0  0  0  0
   -4.7770    0.7494   -0.7829 H   0  0  0  0  0  0  0  0  0  0  0  0
   -6.2650   -0.0214   -0.4151 H   0  0  0  0  0  0  0  0  0  0  0  0
   -4.5850   -0.2863    1.3433 S   0  0  0  0  0  0  0  0  0  0  0  0
   -5.5028    1.0237    2.1599 C   0  0  0  0  0  0  0  0  0  0  0  0
   -5.9843    1.5705    1.4742 H   0  0  0  0  0  0  0  0  0  0  0  0
   -6.1652    0.6226    2.7923 H   0  0  0  0  0  0  0  0  0  0  0  0
   -4.8694    1.6079    2.6672 H   0  0  0  0  0  0  0  0  0  0  0  0
  1  5  1  0
  5  8  1  0
  1  2  1  0
  1  3  1  0
  1  4  1  0
  5  6  1  0
  5  7  1  0
  8  9  1  0
  8 10  1  0
  8 11  1  0
 12 16  1  0
 16 17  1  0
 12 13  1  0
 12 14  1  0
 12 15  1  0
 17 18  1  0
 17 19  1  0
 17 20  1  0
M  CHG  1   8   1
M  END
>  <PDB_ID>  (1682) 
pdb6k8x

>  <RESIDUE_NAME>  (1682) 
LYS   MET

>  <FRAG_NAME>  (1682) 
ETAM   MSM

>  <FRAG_ATOM_NUM>  (1682) 
fragi: 11  fragj: 9

>  <atom.prop.CHAIN_ID>  (1682) 
A A A A A A A A A A A Z Z Z Z Z Z Z Z Z

>  <atom.prop.IS_HEAVY_ATOM>  (1682) 
1 0 0 0 1 0 0 1 0 0 0 1 0 0 0 1 1 0 0 0

>  <DIFUSE_FUNC_ATOM>  (1682) 
n/a

>  <FINAL_SINGLE_POINT_ENERGY>  (1682) 
0

>  <NONCOV_INTER_ENERGY_QM>  (1682) 
0

>  <FF_Energy>  (1682) 
-3.69

>  <QM_Energy>  (1682) 
-10.41

>  <source>  (1682) 
ETAM_MSM

>  <Index>  (1682) 
10694

$$$$
ETAM-pdb5jfl-B-LYS-135:MSM-pdb5jfl-B-MET-139
     RDKit          3D

 20 18  0  0  0  0  0  0  0  0999 V2000
    1.2255    0.8867    0.0000 C   0  0  0  0  0  0  0  0  0  0  0  0
    1.2870    1.3488   -0.8754 H   0  0  0  0  0  0  0  0  0  0  0  0
    2.0269    0.3250    0.1604 H   0  0  0  0  0  0  0  0  0  0  0  0
    1.1545    1.6354    0.7890 H   0  0  0  0  0  0  0  0  0  0  0  0
    0.0000    0.0000    0.0000 C   0  0  0  0  0  0  0  0  0  0  0  0
    0.0088   -0.5713   -0.8164 H   0  0  0  0  0  0  0  0  0  0  0  0
    0.0083   -0.5711    0.8164 H   0  0  0  0  0  0  0  0  0  0  0  0
   -1.2255    0.8377    0.0000 N   0  0  0  0  0  4  0  0  0  0  0  0
   -1.9122    0.4238    0.5980 H   0  0  0  0  0  0  0  0  0  0  0  0
   -1.0033    1.7544    0.3321 H   0  0  0  0  0  0  0  0  0  0  0  0
   -1.5879    0.8995   -0.9305 H   0  0  0  0  0  0  0  0  0  0  0  0
   -3.5379    2.1614   -2.3412 C   0  0  0  0  0  0  0  0  0  0  0  0
   -4.2297    2.9169   -2.3765 H   0  0  0  0  0  0  0  0  0  0  0  0
   -3.7934    1.5187   -3.0982 H   0  0  0  0  0  0  0  0  0  0  0  0
   -2.5540    2.5794   -2.5545 H   0  0  0  0  0  0  0  0  0  0  0  0
   -3.5902    1.3250   -0.7513 S   0  0  0  0  0  0  0  0  0  0  0  0
   -5.2158    0.5724   -0.8407 C   0  0  0  0  0  0  0  0  0  0  0  0
   -5.4599    0.1956    0.0540 H   0  0  0  0  0  0  0  0  0  0  0  0
   -5.8902    1.2625   -1.1058 H   0  0  0  0  0  0  0  0  0  0  0  0
   -5.2070   -0.1623   -1.5205 H   0  0  0  0  0  0  0  0  0  0  0  0
  1  5  1  0
  5  8  1  0
  1  2  1  0
  1  3  1  0
  1  4  1  0
  5  6  1  0
  5  7  1  0
  8  9  1  0
  8 10  1  0
  8 11  1  0
 12 16  1  0
 16 17  1  0
 12 13  1  0
 12 14  1  0
 12 15  1  0
 17 18  1  0
 17 19  1  0
 17 20  1  0
M  CHG  1   8   1
M  END
>  <PDB_ID>  (1683) 
pdb5jfl

>  <RESIDUE_NAME>  (1683) 
LYS   MET

>  <FRAG_NAME>  (1683) 
ETAM   MSM

>  <FRAG_ATOM_NUM>  (1683) 
fragi: 11  fragj: 9

>  <atom.prop.CHAIN_ID>  (1683) 
A A A A A A A A A A A Z Z Z Z Z Z Z Z Z

>  <atom.prop.IS_HEAVY_ATOM>  (1683) 
1 0 0 0 1 0 0 1 0 0 0 1 0 0 0 1 1 0 0 0

>  <DIFUSE_FUNC_ATOM>  (1683) 
n/a

>  <FINAL_SINGLE_POINT_ENERGY>  (1683) 
0

>  <NONCOV_INTER_ENERGY_QM>  (1683) 
0

>  <FF_Energy>  (1683) 
30.51

>  <QM_Energy>  (1683) 
2.29

>  <source>  (1683) 
ETAM_MSM

>  <Index>  (1683) 
10701

$$$$
ETAM-pdb5jfl-G-LYS-135:MSM-pdb5jfl-G-MET-139
     RDKit          3D

 20 18  0  0  0  0  0  0  0  0999 V2000
    1.2440    0.8708    0.0000 C   0  0  0  0  0  0  0  0  0  0  0  0
    1.2845    1.3648   -0.8591 H   0  0  0  0  0  0  0  0  0  0  0  0
    2.0386    0.2871    0.1091 H   0  0  0  0  0  0  0  0  0  0  0  0
    1.2112    1.5866    0.8213 H   0  0  0  0  0  0  0  0  0  0  0  0
    0.0000    0.0000    0.0000 C   0  0  0  0  0  0  0  0  0  0  0  0
    0.0095   -0.5819   -0.8159 H   0  0  0  0  0  0  0  0  0  0  0  0
    0.0086   -0.5825    0.8167 H   0  0  0  0  0  0  0  0  0  0  0  0
   -1.2440    0.8202    0.0000 N   0  0  0  0  0  4  0  0  0  0  0  0
   -1.7440    0.6630    0.8505 H   0  0  0  0  0  0  0  0  0  0  0  0
   -1.0028    1.7874   -0.0733 H   0  0  0  0  0  0  0  0  0  0  0  0
   -1.8141    0.5560   -0.7776 H   0  0  0  0  0  0  0  0  0  0  0  0
   -2.4628    2.5489    3.3304 C   0  0  0  0  0  0  0  0  0  0  0  0
   -3.3547    2.6278    2.8447 H   0  0  0  0  0  0  0  0  0  0  0  0
   -1.7873    3.0786    2.7823 H   0  0  0  0  0  0  0  0  0  0  0  0
   -2.5566    3.0088    4.3142 H   0  0  0  0  0  0  0  0  0  0  0  0
   -1.9600    0.8206    3.4640 S   0  0  0  0  0  0  0  0  0  0  0  0
   -3.2563    0.1751    4.5200 C   0  0  0  0  0  0  0  0  0  0  0  0
   -3.9302    0.8932    4.7010 H   0  0  0  0  0  0  0  0  0  0  0  0
   -3.7062   -0.5950    4.0662 H   0  0  0  0  0  0  0  0  0  0  0  0
   -2.8607   -0.1351    5.3853 H   0  0  0  0  0  0  0  0  0  0  0  0
  1  5  1  0
  5  8  1  0
  1  2  1  0
  1  3  1  0
  1  4  1  0
  5  6  1  0
  5  7  1  0
  8  9  1  0
  8 10  1  0
  8 11  1  0
 12 16  1  0
 16 17  1  0
 12 13  1  0
 12 14  1  0
 12 15  1  0
 17 18  1  0
 17 19  1  0
 17 20  1  0
M  CHG  1   8   1
M  END
>  <PDB_ID>  (1684) 
pdb5jfl

>  <RESIDUE_NAME>  (1684) 
LYS   MET

>  <FRAG_NAME>  (1684) 
ETAM   MSM

>  <FRAG_ATOM_NUM>  (1684) 
fragi: 11  fragj: 9

>  <atom.prop.CHAIN_ID>  (1684) 
A A A A A A A A A A A Z Z Z Z Z Z Z Z Z

>  <atom.prop.IS_HEAVY_ATOM>  (1684) 
1 0 0 0 1 0 0 1 0 0 0 1 0 0 0 1 1 0 0 0

>  <DIFUSE_FUNC_ATOM>  (1684) 
n/a

>  <FINAL_SINGLE_POINT_ENERGY>  (1684) 
0

>  <NONCOV_INTER_ENERGY_QM>  (1684) 
0

>  <FF_Energy>  (1684) 
-5.15

>  <QM_Energy>  (1684) 
-14.26

>  <source>  (1684) 
ETAM_MSM

>  <Index>  (1684) 
10708

$$$$
ETAM-pdb6kz8-A-LYS-162:MSM-pdb6kz8-A-MET-159
     RDKit          3D

 20 18  0  0  0  0  0  0  0  0999 V2000
    1.2708    0.8461   -0.0000 C   0  0  0  0  0  0  0  0  0  0  0  0
    2.0496    0.2391   -0.1203 H   0  0  0  0  0  0  0  0  0  0  0  0
    1.3309    1.3189    0.8729 H   0  0  0  0  0  0  0  0  0  0  0  0
    1.2585    1.5790   -0.8067 H   0  0  0  0  0  0  0  0  0  0  0  0
    0.0000    0.0000    0.0000 C   0  0  0  0  0  0  0  0  0  0  0  0
    0.0108   -0.6003   -0.8158 H   0  0  0  0  0  0  0  0  0  0  0  0
    0.0102   -0.6000    0.8166 H   0  0  0  0  0  0  0  0  0  0  0  0
   -1.2708    0.7909    0.0000 N   0  0  0  0  0  4  0  0  0  0  0  0
   -1.4667    1.0947   -0.9299 H   0  0  0  0  0  0  0  0  0  0  0  0
   -2.0149    0.2148    0.3315 H   0  0  0  0  0  0  0  0  0  0  0  0
   -1.1639    1.5823    0.5988 H   0  0  0  0  0  0  0  0  0  0  0  0
    1.8254   -3.1316   -2.1175 C   0  0  0  0  0  0  0  0  0  0  0  0
    2.3637   -4.0029   -1.9969 H   0  0  0  0  0  0  0  0  0  0  0  0
    1.5094   -2.8851   -1.1680 H   0  0  0  0  0  0  0  0  0  0  0  0
    2.5117   -2.3559   -2.4570 H   0  0  0  0  0  0  0  0  0  0  0  0
    0.4298   -3.3844   -3.2136 S   0  0  0  0  0  0  0  0  0  0  0  0
   -0.5650   -1.9424   -2.9016 C   0  0  0  0  0  0  0  0  0  0  0  0
   -0.4897   -1.3024   -3.6703 H   0  0  0  0  0  0  0  0  0  0  0  0
   -1.5259   -2.2079   -2.7896 H   0  0  0  0  0  0  0  0  0  0  0  0
   -0.2526   -1.4861   -2.0654 H   0  0  0  0  0  0  0  0  0  0  0  0
  1  5  1  0
  5  8  1  0
  1  2  1  0
  1  3  1  0
  1  4  1  0
  5  6  1  0
  5  7  1  0
  8  9  1  0
  8 10  1  0
  8 11  1  0
 12 16  1  0
 16 17  1  0
 12 13  1  0
 12 14  1  0
 12 15  1  0
 17 18  1  0
 17 19  1  0
 17 20  1  0
M  CHG  1   8   1
M  END
>  <PDB_ID>  (1685) 
pdb6kz8

>  <RESIDUE_NAME>  (1685) 
LYS   MET

>  <FRAG_NAME>  (1685) 
ETAM   MSM

>  <FRAG_ATOM_NUM>  (1685) 
fragi: 11  fragj: 9

>  <atom.prop.CHAIN_ID>  (1685) 
A A A A A A A A A A A Z Z Z Z Z Z Z Z Z

>  <atom.prop.IS_HEAVY_ATOM>  (1685) 
1 0 0 0 1 0 0 1 0 0 0 1 0 0 0 1 1 0 0 0

>  <DIFUSE_FUNC_ATOM>  (1685) 
n/a

>  <FINAL_SINGLE_POINT_ENERGY>  (1685) 
0

>  <NONCOV_INTER_ENERGY_QM>  (1685) 
0

>  <FF_Energy>  (1685) 
20.81

>  <QM_Energy>  (1685) 
4.23

>  <source>  (1685) 
ETAM_MSM

>  <Index>  (1685) 
10721

$$$$
ETAM-pdb5jj5-A-LYS-54:MSM-pdb5jj5-A-MET-175
     RDKit          3D

 20 18  0  0  0  0  0  0  0  0999 V2000
    1.2414    0.8741   -0.0000 C   0  0  0  0  0  0  0  0  0  0  0  0
    2.0284    0.3107    0.2396 H   0  0  0  0  0  0  0  0  0  0  0  0
    1.1210    1.5980    0.6748 H   0  0  0  0  0  0  0  0  0  0  0  0
    1.4194    1.3281   -0.9748 H   0  0  0  0  0  0  0  0  0  0  0  0
    0.0000    0.0000    0.0000 C   0  0  0  0  0  0  0  0  0  0  0  0
    0.0114   -0.5822   -0.8158 H   0  0  0  0  0  0  0  0  0  0  0  0
    0.0108   -0.5821    0.8159 H   0  0  0  0  0  0  0  0  0  0  0  0
   -1.2414    0.8187    0.0000 N   0  0  0  0  0  4  0  0  0  0  0  0
   -1.6924    0.7380    0.8891 H   0  0  0  0  0  0  0  0  0  0  0  0
   -1.0082    1.7756   -0.1711 H   0  0  0  0  0  0  0  0  0  0  0  0
   -1.8552    0.4909   -0.7173 H   0  0  0  0  0  0  0  0  0  0  0  0
   -3.9608    0.4784   -1.8349 C   0  0  0  0  0  0  0  0  0  0  0  0
   -3.3966   -0.3262   -1.5123 H   0  0  0  0  0  0  0  0  0  0  0  0
   -3.3119    1.0227   -2.4285 H   0  0  0  0  0  0  0  0  0  0  0  0
   -4.7619    0.0974   -2.4684 H   0  0  0  0  0  0  0  0  0  0  0  0
   -4.5235    1.4633   -0.4371 S   0  0  0  0  0  0  0  0  0  0  0  0
   -5.4288    0.2310    0.4942 C   0  0  0  0  0  0  0  0  0  0  0  0
   -5.1510   -0.6839    0.1993 H   0  0  0  0  0  0  0  0  0  0  0  0
   -5.2343    0.3378    1.4707 H   0  0  0  0  0  0  0  0  0  0  0  0
   -6.4110    0.3454    0.3374 H   0  0  0  0  0  0  0  0  0  0  0  0
  1  5  1  0
  5  8  1  0
  1  2  1  0
  1  3  1  0
  1  4  1  0
  5  6  1  0
  5  7  1  0
  8  9  1  0
  8 10  1  0
  8 11  1  0
 12 16  1  0
 16 17  1  0
 12 13  1  0
 12 14  1  0
 12 15  1  0
 17 18  1  0
 17 19  1  0
 17 20  1  0
M  CHG  1   8   1
M  END
>  <PDB_ID>  (1686) 
pdb5jj5

>  <RESIDUE_NAME>  (1686) 
LYS   MET

>  <FRAG_NAME>  (1686) 
ETAM   MSM

>  <FRAG_ATOM_NUM>  (1686) 
fragi: 11  fragj: 9

>  <atom.prop.CHAIN_ID>  (1686) 
A A A A A A A A A A A Z Z Z Z Z Z Z Z Z

>  <atom.prop.IS_HEAVY_ATOM>  (1686) 
1 0 0 0 1 0 0 1 0 0 0 1 0 0 0 1 1 0 0 0

>  <DIFUSE_FUNC_ATOM>  (1686) 
n/a

>  <FINAL_SINGLE_POINT_ENERGY>  (1686) 
0

>  <NONCOV_INTER_ENERGY_QM>  (1686) 
0

>  <FF_Energy>  (1686) 
-2.76

>  <QM_Energy>  (1686) 
-9.11

>  <source>  (1686) 
ETAM_MSM

>  <Index>  (1686) 
10726

$$$$
ETAM-pdb6m9u-B-LYS-204:MSM-pdb6m9u-B-MET-208
     RDKit          3D

 20 18  0  0  0  0  0  0  0  0999 V2000
    1.2207    0.8996    0.0000 C   0  0  0  0  0  0  0  0  0  0  0  0
    2.0064    0.3335    0.0690 H   0  0  0  0  0  0  0  0  0  0  0  0
    1.1619    1.4801    0.7747 H   0  0  0  0  0  0  0  0  0  0  0  0
    1.3045    1.5135   -0.8967 H   0  0  0  0  0  0  0  0  0  0  0  0
    0.0000    0.0000    0.0000 C   0  0  0  0  0  0  0  0  0  0  0  0
    0.0007   -0.5560   -0.7941 H   0  0  0  0  0  0  0  0  0  0  0  0
    0.0009   -0.5565    0.7941 H   0  0  0  0  0  0  0  0  0  0  0  0
   -1.2207    0.8291   -0.0000 N   0  0  0  0  0  4  0  0  0  0  0  0
   -1.2375    1.3466   -0.7234 H   0  0  0  0  0  0  0  0  0  0  0  0
   -1.9428    0.3086   -0.0001 H   0  0  0  0  0  0  0  0  0  0  0  0
   -1.2375    1.3453    0.7250 H   0  0  0  0  0  0  0  0  0  0  0  0
   -1.8413    4.6409   -3.1942 C   0  0  0  0  0  0  0  0  0  0  0  0
   -2.5788    4.3128   -3.7329 H   0  0  0  0  0  0  0  0  0  0  0  0
   -1.0093    4.2409   -3.4927 H   0  0  0  0  0  0  0  0  0  0  0  0
   -1.7760    5.7240   -3.2979 H   0  0  0  0  0  0  0  0  0  0  0  0
   -2.1257    4.1443   -1.4812 S   0  0  0  0  0  0  0  0  0  0  0  0
   -3.9198    4.2513   -1.3721 C   0  0  0  0  0  0  0  0  0  0  0  0
   -4.1986    3.9856   -0.4826 H   0  0  0  0  0  0  0  0  0  0  0  0
   -4.1928    5.1667   -1.5438 H   0  0  0  0  0  0  0  0  0  0  0  0
   -4.3123    3.6598   -2.0324 H   0  0  0  0  0  0  0  0  0  0  0  0
  1  5  1  0
  5  8  1  0
  1  2  1  0
  1  3  1  0
  1  4  1  0
  5  6  1  0
  5  7  1  0
  8  9  1  0
  8 10  1  0
  8 11  1  0
 12 16  1  0
 16 17  1  0
 12 13  1  0
 12 14  1  0
 12 15  1  0
 17 18  1  0
 17 19  1  0
 17 20  1  0
M  CHG  1   8   1
M  END
>  <PDB_ID>  (1687) 
pdb6m9u

>  <RESIDUE_NAME>  (1687) 
LYS   MET

>  <FRAG_NAME>  (1687) 
ETAM   MSM

>  <FRAG_ATOM_NUM>  (1687) 
fragi: 11  fragj: 9

>  <atom.prop.CHAIN_ID>  (1687) 
A A A A A A A A A A A Z Z Z Z Z Z Z Z Z

>  <atom.prop.IS_HEAVY_ATOM>  (1687) 
1 0 0 0 1 0 0 1 0 0 0 1 0 0 0 1 1 0 0 0

>  <DIFUSE_FUNC_ATOM>  (1687) 
n/a

>  <FINAL_SINGLE_POINT_ENERGY>  (1687) 
0

>  <NONCOV_INTER_ENERGY_QM>  (1687) 
0

>  <FF_Energy>  (1687) 
-4.51

>  <QM_Energy>  (1687) 
-12.08

>  <source>  (1687) 
ETAM_MSM

>  <Index>  (1687) 
10737

$$$$
ETAM-pdb6mfb-A-LYS-19:MSM-pdb6mfb-A-MET-336
     RDKit          3D

 20 18  0  0  0  0  0  0  0  0999 V2000
    1.2490    0.8625   -0.0000 C   0  0  0  0  0  0  0  0  0  0  0  0
    2.0347    0.2858    0.2420 H   0  0  0  0  0  0  0  0  0  0  0  0
    1.1442    1.5764    0.6993 H   0  0  0  0  0  0  0  0  0  0  0  0
    1.4532    1.3420   -0.9573 H   0  0  0  0  0  0  0  0  0  0  0  0
    0.0000    0.0000    0.0000 C   0  0  0  0  0  0  0  0  0  0  0  0
    0.0138   -0.5917   -0.8164 H   0  0  0  0  0  0  0  0  0  0  0  0
    0.0129   -0.5919    0.8168 H   0  0  0  0  0  0  0  0  0  0  0  0
   -1.2490    0.8001    0.0000 N   0  0  0  0  0  4  0  0  0  0  0  0
   -1.0785    1.6860    0.4317 H   0  0  0  0  0  0  0  0  0  0  0  0
   -1.5542    0.9427   -0.9415 H   0  0  0  0  0  0  0  0  0  0  0  0
   -1.9585    0.3122    0.5102 H   0  0  0  0  0  0  0  0  0  0  0  0
   -2.0116    3.9164    2.7838 C   0  0  0  0  0  0  0  0  0  0  0  0
   -2.0493    3.0550    3.3428 H   0  0  0  0  0  0  0  0  0  0  0  0
   -2.9326    3.9880    2.3337 H   0  0  0  0  0  0  0  0  0  0  0  0
   -1.8862    4.7634    3.4583 H   0  0  0  0  0  0  0  0  0  0  0  0
   -0.7033    3.7988    1.5298 S   0  0  0  0  0  0  0  0  0  0  0  0
    0.7127    3.4990    2.5932 C   0  0  0  0  0  0  0  0  0  0  0  0
    1.5057    3.2610    2.0325 H   0  0  0  0  0  0  0  0  0  0  0  0
    0.9127    4.3241    3.1217 H   0  0  0  0  0  0  0  0  0  0  0  0
    0.5075    2.7449    3.2176 H   0  0  0  0  0  0  0  0  0  0  0  0
  1  5  1  0
  5  8  1  0
  1  2  1  0
  1  3  1  0
  1  4  1  0
  5  6  1  0
  5  7  1  0
  8  9  1  0
  8 10  1  0
  8 11  1  0
 12 16  1  0
 16 17  1  0
 12 13  1  0
 12 14  1  0
 12 15  1  0
 17 18  1  0
 17 19  1  0
 17 20  1  0
M  CHG  1   8   1
M  END
>  <PDB_ID>  (1688) 
pdb6mfb

>  <RESIDUE_NAME>  (1688) 
LYS   MET

>  <FRAG_NAME>  (1688) 
ETAM   MSM

>  <FRAG_ATOM_NUM>  (1688) 
fragi: 11  fragj: 9

>  <atom.prop.CHAIN_ID>  (1688) 
A A A A A A A A A A A Z Z Z Z Z Z Z Z Z

>  <atom.prop.IS_HEAVY_ATOM>  (1688) 
1 0 0 0 1 0 0 1 0 0 0 1 0 0 0 1 1 0 0 0

>  <DIFUSE_FUNC_ATOM>  (1688) 
n/a

>  <FINAL_SINGLE_POINT_ENERGY>  (1688) 
0

>  <NONCOV_INTER_ENERGY_QM>  (1688) 
0

>  <FF_Energy>  (1688) 
-5.16

>  <QM_Energy>  (1688) 
-16.02

>  <source>  (1688) 
ETAM_MSM

>  <Index>  (1688) 
10749

$$$$
ETAM-pdb6mfb-D-LYS-19:MSM-pdb6mfb-D-MET-336
     RDKit          3D

 20 18  0  0  0  0  0  0  0  0999 V2000
    1.2410    0.8637   -0.0000 C   0  0  0  0  0  0  0  0  0  0  0  0
    2.0448    0.2693    0.0076 H   0  0  0  0  0  0  0  0  0  0  0  0
    1.2369    1.4306    0.8238 H   0  0  0  0  0  0  0  0  0  0  0  0
    1.2957    1.5145   -0.8726 H   0  0  0  0  0  0  0  0  0  0  0  0
    0.0000    0.0000    0.0000 C   0  0  0  0  0  0  0  0  0  0  0  0
    0.0119   -0.5885   -0.8162 H   0  0  0  0  0  0  0  0  0  0  0  0
    0.0111   -0.5888    0.8162 H   0  0  0  0  0  0  0  0  0  0  0  0
   -1.2410    0.8076    0.0000 N   0  0  0  0  0  4  0  0  0  0  0  0
   -1.3926    1.1897    0.9130 H   0  0  0  0  0  0  0  0  0  0  0  0
   -1.1557    1.5535   -0.6620 H   0  0  0  0  0  0  0  0  0  0  0  0
   -2.0183    0.2286   -0.2508 H   0  0  0  0  0  0  0  0  0  0  0  0
   -2.4136    3.5967    3.1797 C   0  0  0  0  0  0  0  0  0  0  0  0
   -2.4952    2.7120    3.7089 H   0  0  0  0  0  0  0  0  0  0  0  0
   -3.3257    3.6953    2.7039 H   0  0  0  0  0  0  0  0  0  0  0  0
   -2.3178    4.4109    3.8980 H   0  0  0  0  0  0  0  0  0  0  0  0
   -1.0612    3.4621    1.9296 S   0  0  0  0  0  0  0  0  0  0  0  0
    0.3552    3.6312    3.0239 C   0  0  0  0  0  0  0  0  0  0  0  0
    0.8957    2.7901    3.0010 H   0  0  0  0  0  0  0  0  0  0  0  0
    0.9191    4.3991    2.7216 H   0  0  0  0  0  0  0  0  0  0  0  0
    0.0364    3.7978    3.9571 H   0  0  0  0  0  0  0  0  0  0  0  0
  1  5  1  0
  5  8  1  0
  1  2  1  0
  1  3  1  0
  1  4  1  0
  5  6  1  0
  5  7  1  0
  8  9  1  0
  8 10  1  0
  8 11  1  0
 12 16  1  0
 16 17  1  0
 12 13  1  0
 12 14  1  0
 12 15  1  0
 17 18  1  0
 17 19  1  0
 17 20  1  0
M  CHG  1   8   1
M  END
>  <PDB_ID>  (1689) 
pdb6mfb

>  <RESIDUE_NAME>  (1689) 
LYS   MET

>  <FRAG_NAME>  (1689) 
ETAM   MSM

>  <FRAG_ATOM_NUM>  (1689) 
fragi: 11  fragj: 9

>  <atom.prop.CHAIN_ID>  (1689) 
A A A A A A A A A A A Z Z Z Z Z Z Z Z Z

>  <atom.prop.IS_HEAVY_ATOM>  (1689) 
1 0 0 0 1 0 0 1 0 0 0 1 0 0 0 1 1 0 0 0

>  <DIFUSE_FUNC_ATOM>  (1689) 
n/a

>  <FINAL_SINGLE_POINT_ENERGY>  (1689) 
0

>  <NONCOV_INTER_ENERGY_QM>  (1689) 
0

>  <FF_Energy>  (1689) 
-5.7

>  <QM_Energy>  (1689) 
-15.05

>  <source>  (1689) 
ETAM_MSM

>  <Index>  (1689) 
10751

$$$$
ETAM-pdb6mfb-B-LYS-19:MSM-pdb6mfb-B-MET-336
     RDKit          3D

 20 18  0  0  0  0  0  0  0  0999 V2000
    1.2445    0.8716    0.0000 C   0  0  0  0  0  0  0  0  0  0  0  0
    2.0553    0.2683    0.0010 H   0  0  0  0  0  0  0  0  0  0  0  0
    1.2561    1.4081    0.8550 H   0  0  0  0  0  0  0  0  0  0  0  0
    1.3267    1.5593   -0.8417 H   0  0  0  0  0  0  0  0  0  0  0  0
    0.0000    0.0000    0.0000 C   0  0  0  0  0  0  0  0  0  0  0  0
    0.0167   -0.5878   -0.8165 H   0  0  0  0  0  0  0  0  0  0  0  0
    0.0159   -0.5877    0.8162 H   0  0  0  0  0  0  0  0  0  0  0  0
   -1.2445    0.8029    0.0000 N   0  0  0  0  0  4  0  0  0  0  0  0
   -1.9425    0.3397   -0.5477 H   0  0  0  0  0  0  0  0  0  0  0  0
   -1.5754    0.9093    0.9391 H   0  0  0  0  0  0  0  0  0  0  0  0
   -1.0612    1.7060   -0.3915 H   0  0  0  0  0  0  0  0  0  0  0  0
   -1.6360    4.1081    3.3628 C   0  0  0  0  0  0  0  0  0  0  0  0
   -1.7432    3.2462    3.9039 H   0  0  0  0  0  0  0  0  0  0  0  0
   -2.5718    4.3416    3.0203 H   0  0  0  0  0  0  0  0  0  0  0  0
   -1.3093    4.8991    4.0378 H   0  0  0  0  0  0  0  0  0  0  0  0
   -0.4936    3.8512    1.9731 S   0  0  0  0  0  0  0  0  0  0  0  0
    0.9736    3.2326    2.8028 C   0  0  0  0  0  0  0  0  0  0  0  0
    1.7707    3.7618    2.5095 H   0  0  0  0  0  0  0  0  0  0  0  0
    0.8595    3.3221    3.7921 H   0  0  0  0  0  0  0  0  0  0  0  0
    1.1087    2.2701    2.5681 H   0  0  0  0  0  0  0  0  0  0  0  0
  1  5  1  0
  5  8  1  0
  1  2  1  0
  1  3  1  0
  1  4  1  0
  5  6  1  0
  5  7  1  0
  8  9  1  0
  8 10  1  0
  8 11  1  0
 12 16  1  0
 16 17  1  0
 12 13  1  0
 12 14  1  0
 12 15  1  0
 17 18  1  0
 17 19  1  0
 17 20  1  0
M  CHG  1   8   1
M  END
>  <PDB_ID>  (1690) 
pdb6mfb

>  <RESIDUE_NAME>  (1690) 
LYS   MET

>  <FRAG_NAME>  (1690) 
ETAM   MSM

>  <FRAG_ATOM_NUM>  (1690) 
fragi: 11  fragj: 9

>  <atom.prop.CHAIN_ID>  (1690) 
A A A A A A A A A A A Z Z Z Z Z Z Z Z Z

>  <atom.prop.IS_HEAVY_ATOM>  (1690) 
1 0 0 0 1 0 0 1 0 0 0 1 0 0 0 1 1 0 0 0

>  <DIFUSE_FUNC_ATOM>  (1690) 
n/a

>  <FINAL_SINGLE_POINT_ENERGY>  (1690) 
0

>  <NONCOV_INTER_ENERGY_QM>  (1690) 
0

>  <FF_Energy>  (1690) 
-3.29

>  <QM_Energy>  (1690) 
-10.34

>  <source>  (1690) 
ETAM_MSM

>  <Index>  (1690) 
10754

$$$$
ETAM-pdb6m9x-C-LYS-196:MSM-pdb6m9x-D-MET-219
     RDKit          3D

 20 18  0  0  0  0  0  0  0  0999 V2000
    1.2257    0.8859   -0.0000 C   0  0  0  0  0  0  0  0  0  0  0  0
    1.1208    1.5809    0.7110 H   0  0  0  0  0  0  0  0  0  0  0  0
    1.3033    1.3297   -0.8929 H   0  0  0  0  0  0  0  0  0  0  0  0
    2.1445    0.3318    0.1920 H   0  0  0  0  0  0  0  0  0  0  0  0
    0.0000    0.0000    0.0000 C   0  0  0  0  0  0  0  0  0  0  0  0
    0.0134   -0.5750   -0.8162 H   0  0  0  0  0  0  0  0  0  0  0  0
    0.0128   -0.5750    0.8158 H   0  0  0  0  0  0  0  0  0  0  0  0
   -1.2257    0.8267    0.0000 N   0  0  0  0  0  4  0  0  0  0  0  0
   -1.8736    0.4684   -0.6738 H   0  0  0  0  0  0  0  0  0  0  0  0
   -1.6466    0.8050    0.9086 H   0  0  0  0  0  0  0  0  0  0  0  0
   -0.9940    1.7716   -0.2345 H   0  0  0  0  0  0  0  0  0  0  0  0
   -0.9983   -0.5465    4.3098 C   0  0  0  0  0  0  0  0  0  0  0  0
   -0.9033   -0.6387    5.3292 H   0  0  0  0  0  0  0  0  0  0  0  0
   -1.0201   -1.5121    3.9551 H   0  0  0  0  0  0  0  0  0  0  0  0
   -1.9594   -0.0792    4.0953 H   0  0  0  0  0  0  0  0  0  0  0  0
    0.4102    0.3533    3.6182 S   0  0  0  0  0  0  0  0  0  0  0  0
    1.7607   -0.6584    4.2274 C   0  0  0  0  0  0  0  0  0  0  0  0
    1.4376   -1.5938    4.3741 H   0  0  0  0  0  0  0  0  0  0  0  0
    2.5033   -0.6646    3.5566 H   0  0  0  0  0  0  0  0  0  0  0  0
    2.0961   -0.2831    5.0921 H   0  0  0  0  0  0  0  0  0  0  0  0
  1  5  1  0
  5  8  1  0
  1  2  1  0
  1  3  1  0
  1  4  1  0
  5  6  1  0
  5  7  1  0
  8  9  1  0
  8 10  1  0
  8 11  1  0
 12 16  1  0
 16 17  1  0
 12 13  1  0
 12 14  1  0
 12 15  1  0
 17 18  1  0
 17 19  1  0
 17 20  1  0
M  CHG  1   8   1
M  END
>  <PDB_ID>  (1691) 
pdb6m9x

>  <RESIDUE_NAME>  (1691) 
LYS   MET

>  <FRAG_NAME>  (1691) 
ETAM   MSM

>  <FRAG_ATOM_NUM>  (1691) 
fragi: 11  fragj: 9

>  <atom.prop.CHAIN_ID>  (1691) 
A A A A A A A A A A A Z Z Z Z Z Z Z Z Z

>  <atom.prop.IS_HEAVY_ATOM>  (1691) 
1 0 0 0 1 0 0 1 0 0 0 1 0 0 0 1 1 0 0 0

>  <DIFUSE_FUNC_ATOM>  (1691) 
n/a

>  <FINAL_SINGLE_POINT_ENERGY>  (1691) 
0

>  <NONCOV_INTER_ENERGY_QM>  (1691) 
0

>  <FF_Energy>  (1691) 
-4.59

>  <QM_Energy>  (1691) 
-10.12

>  <source>  (1691) 
ETAM_MSM

>  <Index>  (1691) 
10765

$$$$
ETAM-pdb5jpo-A-LYS-132:MSM-pdb5jpo-A-MET-213
     RDKit          3D

 20 18  0  0  0  0  0  0  0  0999 V2000
    1.2394    0.8846    0.0000 C   0  0  0  0  0  0  0  0  0  0  0  0
    1.2743    1.3839    0.8646 H   0  0  0  0  0  0  0  0  0  0  0  0
    1.1696    1.5295   -0.7590 H   0  0  0  0  0  0  0  0  0  0  0  0
    2.1621    0.3149   -0.1103 H   0  0  0  0  0  0  0  0  0  0  0  0
    0.0000    0.0000    0.0000 C   0  0  0  0  0  0  0  0  0  0  0  0
    0.0056   -0.5697   -0.8163 H   0  0  0  0  0  0  0  0  0  0  0  0
    0.0055   -0.5708    0.8165 H   0  0  0  0  0  0  0  0  0  0  0  0
   -1.2394    0.8429   -0.0000 N   0  0  0  0  0  4  0  0  0  0  0  0
   -1.0384    1.7190    0.4331 H   0  0  0  0  0  0  0  0  0  0  0  0
   -1.5335    0.9912   -0.9418 H   0  0  0  0  0  0  0  0  0  0  0  0
   -1.9556    0.3691    0.5082 H   0  0  0  0  0  0  0  0  0  0  0  0
   -3.0414   -0.8004   -4.8015 C   0  0  0  0  0  0  0  0  0  0  0  0
   -3.6159   -1.5450   -4.4026 H   0  0  0  0  0  0  0  0  0  0  0  0
   -2.2992   -1.2660   -5.3278 H   0  0  0  0  0  0  0  0  0  0  0  0
   -3.6531   -0.2271   -5.4980 H   0  0  0  0  0  0  0  0  0  0  0  0
   -2.3433    0.2377   -3.4942 S   0  0  0  0  0  0  0  0  0  0  0  0
   -1.5381    1.4952   -4.4981 C   0  0  0  0  0  0  0  0  0  0  0  0
   -1.1444    1.0688   -5.3119 H   0  0  0  0  0  0  0  0  0  0  0  0
   -2.2110    2.1819   -4.7726 H   0  0  0  0  0  0  0  0  0  0  0  0
   -0.8134    1.9308   -3.9655 H   0  0  0  0  0  0  0  0  0  0  0  0
  1  5  1  0
  5  8  1  0
  1  2  1  0
  1  3  1  0
  1  4  1  0
  5  6  1  0
  5  7  1  0
  8  9  1  0
  8 10  1  0
  8 11  1  0
 12 16  1  0
 16 17  1  0
 12 13  1  0
 12 14  1  0
 12 15  1  0
 17 18  1  0
 17 19  1  0
 17 20  1  0
M  CHG  1   8   1
M  END
>  <PDB_ID>  (1692) 
pdb5jpo

>  <RESIDUE_NAME>  (1692) 
LYS   MET

>  <FRAG_NAME>  (1692) 
ETAM   MSM

>  <FRAG_ATOM_NUM>  (1692) 
fragi: 11  fragj: 9

>  <atom.prop.CHAIN_ID>  (1692) 
A A A A A A A A A A A Z Z Z Z Z Z Z Z Z

>  <atom.prop.IS_HEAVY_ATOM>  (1692) 
1 0 0 0 1 0 0 1 0 0 0 1 0 0 0 1 1 0 0 0

>  <DIFUSE_FUNC_ATOM>  (1692) 
n/a

>  <FINAL_SINGLE_POINT_ENERGY>  (1692) 
0

>  <NONCOV_INTER_ENERGY_QM>  (1692) 
0

>  <FF_Energy>  (1692) 
-5.23

>  <QM_Energy>  (1692) 
-11.41

>  <source>  (1692) 
ETAM_MSM

>  <Index>  (1692) 
10768

$$$$
ETAM-pdb5jpi-A-LYS-193:MSM-pdb5jpi-A-MET-189
     RDKit          3D

 20 18  0  0  0  0  0  0  0  0999 V2000
    1.2529    0.8619   -0.0000 C   0  0  0  0  0  0  0  0  0  0  0  0
    1.2469    1.4361   -0.8174 H   0  0  0  0  0  0  0  0  0  0  0  0
    2.0529    0.2639   -0.0163 H   0  0  0  0  0  0  0  0  0  0  0  0
    1.3222    1.5081    0.8750 H   0  0  0  0  0  0  0  0  0  0  0  0
    0.0000    0.0000    0.0000 C   0  0  0  0  0  0  0  0  0  0  0  0
    0.0120   -0.5904   -0.8161 H   0  0  0  0  0  0  0  0  0  0  0  0
    0.0119   -0.5907    0.8165 H   0  0  0  0  0  0  0  0  0  0  0  0
   -1.2529    0.8039   -0.0000 N   0  0  0  0  0  4  0  0  0  0  0  0
   -1.7102    0.7052   -0.8830 H   0  0  0  0  0  0  0  0  0  0  0  0
   -1.8552    0.4782    0.7280 H   0  0  0  0  0  0  0  0  0  0  0  0
   -1.0292    1.7661    0.1556 H   0  0  0  0  0  0  0  0  0  0  0  0
   -2.5453    4.4192   -1.1888 C   0  0  0  0  0  0  0  0  0  0  0  0
   -2.6098    4.3607   -0.1568 H   0  0  0  0  0  0  0  0  0  0  0  0
   -3.4597    4.0630   -1.5189 H   0  0  0  0  0  0  0  0  0  0  0  0
   -2.4671    5.4704   -1.4666 H   0  0  0  0  0  0  0  0  0  0  0  0
   -1.2004    3.3675   -1.7979 S   0  0  0  0  0  0  0  0  0  0  0  0
   -1.4859    3.4222   -3.5778 C   0  0  0  0  0  0  0  0  0  0  0  0
   -0.7761    3.9786   -4.0084 H   0  0  0  0  0  0  0  0  0  0  0  0
   -1.4555    2.4932   -3.9453 H   0  0  0  0  0  0  0  0  0  0  0  0
   -2.3823    3.8249   -3.7558 H   0  0  0  0  0  0  0  0  0  0  0  0
  1  5  1  0
  5  8  1  0
  1  2  1  0
  1  3  1  0
  1  4  1  0
  5  6  1  0
  5  7  1  0
  8  9  1  0
  8 10  1  0
  8 11  1  0
 12 16  1  0
 16 17  1  0
 12 13  1  0
 12 14  1  0
 12 15  1  0
 17 18  1  0
 17 19  1  0
 17 20  1  0
M  CHG  1   8   1
M  END
>  <PDB_ID>  (1693) 
pdb5jpi

>  <RESIDUE_NAME>  (1693) 
LYS   MET

>  <FRAG_NAME>  (1693) 
ETAM   MSM

>  <FRAG_ATOM_NUM>  (1693) 
fragi: 11  fragj: 9

>  <atom.prop.CHAIN_ID>  (1693) 
A A A A A A A A A A A Z Z Z Z Z Z Z Z Z

>  <atom.prop.IS_HEAVY_ATOM>  (1693) 
1 0 0 0 1 0 0 1 0 0 0 1 0 0 0 1 1 0 0 0

>  <DIFUSE_FUNC_ATOM>  (1693) 
n/a

>  <FINAL_SINGLE_POINT_ENERGY>  (1693) 
0

>  <NONCOV_INTER_ENERGY_QM>  (1693) 
0

>  <FF_Energy>  (1693) 
-4.86

>  <QM_Energy>  (1693) 
-12.99

>  <source>  (1693) 
ETAM_MSM

>  <Index>  (1693) 
10772

$$$$
ETAM-pdb5jsc-A-LYS-167:MSM-pdb5jsc-A-MET-150
     RDKit          3D

 20 18  0  0  0  0  0  0  0  0999 V2000
    1.2536    0.8510   -0.0000 C   0  0  0  0  0  0  0  0  0  0  0  0
    1.2968    1.3530    0.8577 H   0  0  0  0  0  0  0  0  0  0  0  0
    1.2104    1.4803   -0.7685 H   0  0  0  0  0  0  0  0  0  0  0  0
    2.1471    0.2340   -0.0953 H   0  0  0  0  0  0  0  0  0  0  0  0
    0.0000    0.0000    0.0000 C   0  0  0  0  0  0  0  0  0  0  0  0
    0.0009   -0.5893   -0.8164 H   0  0  0  0  0  0  0  0  0  0  0  0
    0.0008   -0.5897    0.8161 H   0  0  0  0  0  0  0  0  0  0  0  0
   -1.2536    0.8196   -0.0000 N   0  0  0  0  0  4  0  0  0  0  0  0
   -1.4257    1.1529   -0.9247 H   0  0  0  0  0  0  0  0  0  0  0  0
   -2.0160    0.2508    0.3025 H   0  0  0  0  0  0  0  0  0  0  0  0
   -1.1394    1.5916    0.6219 H   0  0  0  0  0  0  0  0  0  0  0  0
   -5.4639    2.1372   -1.0806 C   0  0  0  0  0  0  0  0  0  0  0  0
   -6.4179    2.3644   -0.7955 H   0  0  0  0  0  0  0  0  0  0  0  0
   -5.4960    2.0030   -2.0925 H   0  0  0  0  0  0  0  0  0  0  0  0
   -4.8268    2.9951   -0.8655 H   0  0  0  0  0  0  0  0  0  0  0  0
   -4.8842    0.6455   -0.2541 S   0  0  0  0  0  0  0  0  0  0  0  0
   -5.2183    1.0682    1.4487 C   0  0  0  0  0  0  0  0  0  0  0  0
   -6.0552    0.6097    1.7531 H   0  0  0  0  0  0  0  0  0  0  0  0
   -4.4536    0.7762    2.0257 H   0  0  0  0  0  0  0  0  0  0  0  0
   -5.3357    2.0598    1.5343 H   0  0  0  0  0  0  0  0  0  0  0  0
  1  5  1  0
  5  8  1  0
  1  2  1  0
  1  3  1  0
  1  4  1  0
  5  6  1  0
  5  7  1  0
  8  9  1  0
  8 10  1  0
  8 11  1  0
 12 16  1  0
 16 17  1  0
 12 13  1  0
 12 14  1  0
 12 15  1  0
 17 18  1  0
 17 19  1  0
 17 20  1  0
M  CHG  1   8   1
M  END
>  <PDB_ID>  (1694) 
pdb5jsc

>  <RESIDUE_NAME>  (1694) 
LYS   MET

>  <FRAG_NAME>  (1694) 
ETAM   MSM

>  <FRAG_ATOM_NUM>  (1694) 
fragi: 11  fragj: 9

>  <atom.prop.CHAIN_ID>  (1694) 
A A A A A A A A A A A Z Z Z Z Z Z Z Z Z

>  <atom.prop.IS_HEAVY_ATOM>  (1694) 
1 0 0 0 1 0 0 1 0 0 0 1 0 0 0 1 1 0 0 0

>  <DIFUSE_FUNC_ATOM>  (1694) 
n/a

>  <FINAL_SINGLE_POINT_ENERGY>  (1694) 
0

>  <NONCOV_INTER_ENERGY_QM>  (1694) 
0

>  <FF_Energy>  (1694) 
-4.12

>  <QM_Energy>  (1694) 
-11.05

>  <source>  (1694) 
ETAM_MSM

>  <Index>  (1694) 
10773

$$$$
ETAM-pdb5jsc-B-LYS-167:MSM-pdb5jsc-B-MET-150
     RDKit          3D

 20 18  0  0  0  0  0  0  0  0999 V2000
    1.2402    0.8662    0.0000 C   0  0  0  0  0  0  0  0  0  0  0  0
    1.3130    1.3207    0.8838 H   0  0  0  0  0  0  0  0  0  0  0  0
    1.1571    1.5431   -0.7261 H   0  0  0  0  0  0  0  0  0  0  0  0
    2.1412    0.2763   -0.1681 H   0  0  0  0  0  0  0  0  0  0  0  0
    0.0000    0.0000    0.0000 C   0  0  0  0  0  0  0  0  0  0  0  0
   -0.0020   -0.5763   -0.8156 H   0  0  0  0  0  0  0  0  0  0  0  0
   -0.0020   -0.5758    0.8163 H   0  0  0  0  0  0  0  0  0  0  0  0
   -1.2402    0.8437   -0.0000 N   0  0  0  0  0  4  0  0  0  0  0  0
   -0.9822    1.8018    0.1062 H   0  0  0  0  0  0  0  0  0  0  0  0
   -1.7204    0.7161   -0.8647 H   0  0  0  0  0  0  0  0  0  0  0  0
   -1.8251    0.5630    0.7577 H   0  0  0  0  0  0  0  0  0  0  0  0
   -5.4810    2.1409   -0.9710 C   0  0  0  0  0  0  0  0  0  0  0  0
   -6.4228    2.3856   -0.6602 H   0  0  0  0  0  0  0  0  0  0  0  0
   -5.5557    1.9459   -1.9718 H   0  0  0  0  0  0  0  0  0  0  0  0
   -4.8351    3.0081   -0.8338 H   0  0  0  0  0  0  0  0  0  0  0  0
   -4.8678    0.6973   -0.0816 S   0  0  0  0  0  0  0  0  0  0  0  0
   -5.1191    1.2144    1.6104 C   0  0  0  0  0  0  0  0  0  0  0  0
   -6.0950    1.1782    1.8332 H   0  0  0  0  0  0  0  0  0  0  0  0
   -4.6171    0.6063    2.2277 H   0  0  0  0  0  0  0  0  0  0  0  0
   -4.7883    2.1528    1.7299 H   0  0  0  0  0  0  0  0  0  0  0  0
  1  5  1  0
  5  8  1  0
  1  2  1  0
  1  3  1  0
  1  4  1  0
  5  6  1  0
  5  7  1  0
  8  9  1  0
  8 10  1  0
  8 11  1  0
 12 16  1  0
 16 17  1  0
 12 13  1  0
 12 14  1  0
 12 15  1  0
 17 18  1  0
 17 19  1  0
 17 20  1  0
M  CHG  1   8   1
M  END
>  <PDB_ID>  (1695) 
pdb5jsc

>  <RESIDUE_NAME>  (1695) 
LYS   MET

>  <FRAG_NAME>  (1695) 
ETAM   MSM

>  <FRAG_ATOM_NUM>  (1695) 
fragi: 11  fragj: 9

>  <atom.prop.CHAIN_ID>  (1695) 
A A A A A A A A A A A Z Z Z Z Z Z Z Z Z

>  <atom.prop.IS_HEAVY_ATOM>  (1695) 
1 0 0 0 1 0 0 1 0 0 0 1 0 0 0 1 1 0 0 0

>  <DIFUSE_FUNC_ATOM>  (1695) 
n/a

>  <FINAL_SINGLE_POINT_ENERGY>  (1695) 
0

>  <NONCOV_INTER_ENERGY_QM>  (1695) 
0

>  <FF_Energy>  (1695) 
-4.15

>  <QM_Energy>  (1695) 
-10.76

>  <source>  (1695) 
ETAM_MSM

>  <Index>  (1695) 
10774

$$$$
ETAM-pdb6mjn-C-LYS-92:MSM-pdb6mjn-D-MET-1
     RDKit          3D

 20 18  0  0  0  0  0  0  0  0999 V2000
    1.2580    0.8640    0.0000 C   0  0  0  0  0  0  0  0  0  0  0  0
    1.2829    1.3871    0.8437 H   0  0  0  0  0  0  0  0  0  0  0  0
    1.2258    1.4688   -0.7865 H   0  0  0  0  0  0  0  0  0  0  0  0
    2.1587    0.2532   -0.0618 H   0  0  0  0  0  0  0  0  0  0  0  0
    0.0000    0.0000    0.0000 C   0  0  0  0  0  0  0  0  0  0  0  0
    0.0082   -0.5861   -0.8166 H   0  0  0  0  0  0  0  0  0  0  0  0
    0.0081   -0.5861    0.8164 H   0  0  0  0  0  0  0  0  0  0  0  0
   -1.2580    0.8161    0.0000 N   0  0  0  0  0  4  0  0  0  0  0  0
   -1.0928    1.6689   -0.4905 H   0  0  0  0  0  0  0  0  0  0  0  0
   -1.9815    0.2992   -0.4521 H   0  0  0  0  0  0  0  0  0  0  0  0
   -1.5186    1.0120    0.9427 H   0  0  0  0  0  0  0  0  0  0  0  0
   -5.4972   -1.5872   -0.9929 C   0  0  0  0  0  0  0  0  0  0  0  0
   -6.3529   -1.4523   -1.5332 H   0  0  0  0  0  0  0  0  0  0  0  0
   -5.6942   -1.2382   -0.0542 H   0  0  0  0  0  0  0  0  0  0  0  0
   -5.2873   -2.6551   -0.9325 H   0  0  0  0  0  0  0  0  0  0  0  0
   -4.1256   -0.6892   -1.7330 S   0  0  0  0  0  0  0  0  0  0  0  0
   -4.2685   -1.2454   -3.4226 C   0  0  0  0  0  0  0  0  0  0  0  0
   -4.2691   -2.2471   -3.4507 H   0  0  0  0  0  0  0  0  0  0  0  0
   -5.1228   -0.9048   -3.8207 H   0  0  0  0  0  0  0  0  0  0  0  0
   -3.4947   -0.9018   -3.9589 H   0  0  0  0  0  0  0  0  0  0  0  0
  1  5  1  0
  5  8  1  0
  1  2  1  0
  1  3  1  0
  1  4  1  0
  5  6  1  0
  5  7  1  0
  8  9  1  0
  8 10  1  0
  8 11  1  0
 12 16  1  0
 16 17  1  0
 12 13  1  0
 12 14  1  0
 12 15  1  0
 17 18  1  0
 17 19  1  0
 17 20  1  0
M  CHG  1   8   1
M  END
>  <PDB_ID>  (1696) 
pdb6mjn

>  <RESIDUE_NAME>  (1696) 
LYS   MET

>  <FRAG_NAME>  (1696) 
ETAM   MSM

>  <FRAG_ATOM_NUM>  (1696) 
fragi: 11  fragj: 9

>  <atom.prop.CHAIN_ID>  (1696) 
A A A A A A A A A A A Z Z Z Z Z Z Z Z Z

>  <atom.prop.IS_HEAVY_ATOM>  (1696) 
1 0 0 0 1 0 0 1 0 0 0 1 0 0 0 1 1 0 0 0

>  <DIFUSE_FUNC_ATOM>  (1696) 
n/a

>  <FINAL_SINGLE_POINT_ENERGY>  (1696) 
0

>  <NONCOV_INTER_ENERGY_QM>  (1696) 
0

>  <FF_Energy>  (1696) 
-5.28

>  <QM_Energy>  (1696) 
-13.38

>  <source>  (1696) 
ETAM_MSM

>  <Index>  (1696) 
10776

$$$$
ETAM-pdb5jpo-B-LYS-132:MSM-pdb5jpo-B-MET-213
     RDKit          3D

 20 18  0  0  0  0  0  0  0  0999 V2000
    1.2519    0.8748    0.0000 C   0  0  0  0  0  0  0  0  0  0  0  0
    1.2309    1.4596    0.8018 H   0  0  0  0  0  0  0  0  0  0  0  0
    1.2601    1.4170   -0.8309 H   0  0  0  0  0  0  0  0  0  0  0  0
    2.1596    0.2722    0.0327 H   0  0  0  0  0  0  0  0  0  0  0  0
    0.0000    0.0000    0.0000 C   0  0  0  0  0  0  0  0  0  0  0  0
    0.0107   -0.5815   -0.8167 H   0  0  0  0  0  0  0  0  0  0  0  0
    0.0103   -0.5814    0.8161 H   0  0  0  0  0  0  0  0  0  0  0  0
   -1.2519    0.8188    0.0000 N   0  0  0  0  0  4  0  0  0  0  0  0
   -1.4484    1.1172   -0.9323 H   0  0  0  0  0  0  0  0  0  0  0  0
   -2.0067    0.2633    0.3430 H   0  0  0  0  0  0  0  0  0  0  0  0
   -1.1230    1.6150    0.5890 H   0  0  0  0  0  0  0  0  0  0  0  0
   -2.5729   -1.4277   -4.4262 C   0  0  0  0  0  0  0  0  0  0  0  0
   -3.0875   -2.1250   -3.8889 H   0  0  0  0  0  0  0  0  0  0  0  0
   -1.8293   -1.9292   -4.9113 H   0  0  0  0  0  0  0  0  0  0  0  0
   -3.2434   -0.9934   -5.1678 H   0  0  0  0  0  0  0  0  0  0  0  0
   -1.8846   -0.1619   -3.3359 S   0  0  0  0  0  0  0  0  0  0  0  0
   -0.9969    0.8605   -4.5180 C   0  0  0  0  0  0  0  0  0  0  0  0
   -0.9257    1.7928   -4.1642 H   0  0  0  0  0  0  0  0  0  0  0  0
   -0.0808    0.4863   -4.6598 H   0  0  0  0  0  0  0  0  0  0  0  0
   -1.4912    0.8702   -5.3872 H   0  0  0  0  0  0  0  0  0  0  0  0
  1  5  1  0
  5  8  1  0
  1  2  1  0
  1  3  1  0
  1  4  1  0
  5  6  1  0
  5  7  1  0
  8  9  1  0
  8 10  1  0
  8 11  1  0
 12 16  1  0
 16 17  1  0
 12 13  1  0
 12 14  1  0
 12 15  1  0
 17 18  1  0
 17 19  1  0
 17 20  1  0
M  CHG  1   8   1
M  END
>  <PDB_ID>  (1697) 
pdb5jpo

>  <RESIDUE_NAME>  (1697) 
LYS   MET

>  <FRAG_NAME>  (1697) 
ETAM   MSM

>  <FRAG_ATOM_NUM>  (1697) 
fragi: 11  fragj: 9

>  <atom.prop.CHAIN_ID>  (1697) 
A A A A A A A A A A A Z Z Z Z Z Z Z Z Z

>  <atom.prop.IS_HEAVY_ATOM>  (1697) 
1 0 0 0 1 0 0 1 0 0 0 1 0 0 0 1 1 0 0 0

>  <DIFUSE_FUNC_ATOM>  (1697) 
n/a

>  <FINAL_SINGLE_POINT_ENERGY>  (1697) 
0

>  <NONCOV_INTER_ENERGY_QM>  (1697) 
0

>  <FF_Energy>  (1697) 
-5.67

>  <QM_Energy>  (1697) 
-12.64

>  <source>  (1697) 
ETAM_MSM

>  <Index>  (1697) 
10783

$$$$
ETAM-pdb5jpo-C-LYS-132:MSM-pdb5jpo-C-MET-213
     RDKit          3D

 20 18  0  0  0  0  0  0  0  0999 V2000
    1.2578    0.8687   -0.0000 C   0  0  0  0  0  0  0  0  0  0  0  0
    1.2973    1.3667    0.8579 H   0  0  0  0  0  0  0  0  0  0  0  0
    1.2077    1.4955   -0.7673 H   0  0  0  0  0  0  0  0  0  0  0  0
    2.1587    0.2629   -0.0972 H   0  0  0  0  0  0  0  0  0  0  0  0
    0.0000    0.0000    0.0000 C   0  0  0  0  0  0  0  0  0  0  0  0
    0.0178   -0.5916   -0.8162 H   0  0  0  0  0  0  0  0  0  0  0  0
    0.0177   -0.5913    0.8158 H   0  0  0  0  0  0  0  0  0  0  0  0
   -1.2578    0.7951    0.0000 N   0  0  0  0  0  4  0  0  0  0  0  0
   -1.1935    1.5182   -0.6869 H   0  0  0  0  0  0  0  0  0  0  0  0
   -2.0285    0.1961   -0.2154 H   0  0  0  0  0  0  0  0  0  0  0  0
   -1.3926    1.2023    0.9033 H   0  0  0  0  0  0  0  0  0  0  0  0
   -2.9336   -1.5988   -3.8695 C   0  0  0  0  0  0  0  0  0  0  0  0
   -3.0309   -2.4986   -3.3882 H   0  0  0  0  0  0  0  0  0  0  0  0
   -2.2086   -1.7436   -4.5800 H   0  0  0  0  0  0  0  0  0  0  0  0
   -3.8729   -1.3773   -4.3763 H   0  0  0  0  0  0  0  0  0  0  0  0
   -2.4381   -0.3028   -2.7069 S   0  0  0  0  0  0  0  0  0  0  0  0
   -2.2428    1.1111   -3.7963 C   0  0  0  0  0  0  0  0  0  0  0  0
   -3.0310    1.1709   -4.4089 H   0  0  0  0  0  0  0  0  0  0  0  0
   -2.1812    1.9469   -3.2503 H   0  0  0  0  0  0  0  0  0  0  0  0
   -1.4080    1.0032   -4.3363 H   0  0  0  0  0  0  0  0  0  0  0  0
  1  5  1  0
  5  8  1  0
  1  2  1  0
  1  3  1  0
  1  4  1  0
  5  6  1  0
  5  7  1  0
  8  9  1  0
  8 10  1  0
  8 11  1  0
 12 16  1  0
 16 17  1  0
 12 13  1  0
 12 14  1  0
 12 15  1  0
 17 18  1  0
 17 19  1  0
 17 20  1  0
M  CHG  1   8   1
M  END
>  <PDB_ID>  (1698) 
pdb5jpo

>  <RESIDUE_NAME>  (1698) 
LYS   MET

>  <FRAG_NAME>  (1698) 
ETAM   MSM

>  <FRAG_ATOM_NUM>  (1698) 
fragi: 11  fragj: 9

>  <atom.prop.CHAIN_ID>  (1698) 
A A A A A A A A A A A Z Z Z Z Z Z Z Z Z

>  <atom.prop.IS_HEAVY_ATOM>  (1698) 
1 0 0 0 1 0 0 1 0 0 0 1 0 0 0 1 1 0 0 0

>  <DIFUSE_FUNC_ATOM>  (1698) 
n/a

>  <FINAL_SINGLE_POINT_ENERGY>  (1698) 
0

>  <NONCOV_INTER_ENERGY_QM>  (1698) 
0

>  <FF_Energy>  (1698) 
-4.86

>  <QM_Energy>  (1698) 
-12.96

>  <source>  (1698) 
ETAM_MSM

>  <Index>  (1698) 
10798

$$$$
ETAM-pdb5jpi-B-LYS-193:MSM-pdb5jpi-B-MET-189
     RDKit          3D

 20 18  0  0  0  0  0  0  0  0999 V2000
    1.2514    0.8628   -0.0000 C   0  0  0  0  0  0  0  0  0  0  0  0
    1.2303    1.4551    0.7985 H   0  0  0  0  0  0  0  0  0  0  0  0
    1.2640    1.4045   -0.8337 H   0  0  0  0  0  0  0  0  0  0  0  0
    2.1560    0.2560    0.0388 H   0  0  0  0  0  0  0  0  0  0  0  0
    0.0000    0.0000    0.0000 C   0  0  0  0  0  0  0  0  0  0  0  0
    0.0100   -0.5880   -0.8164 H   0  0  0  0  0  0  0  0  0  0  0  0
    0.0096   -0.5879    0.8162 H   0  0  0  0  0  0  0  0  0  0  0  0
   -1.2514    0.8111    0.0000 N   0  0  0  0  0  4  0  0  0  0  0  0
   -2.0023    0.2598    0.3622 H   0  0  0  0  0  0  0  0  0  0  0  0
   -1.1208    1.6193    0.5733 H   0  0  0  0  0  0  0  0  0  0  0  0
   -1.4622    1.0926   -0.9349 H   0  0  0  0  0  0  0  0  0  0  0  0
    0.0265   -0.6880    4.4830 C   0  0  0  0  0  0  0  0  0  0  0  0
    0.5069   -1.4701    3.9883 H   0  0  0  0  0  0  0  0  0  0  0  0
   -0.9032   -1.0955    4.7219 H   0  0  0  0  0  0  0  0  0  0  0  0
    0.5612   -0.5016    5.4143 H   0  0  0  0  0  0  0  0  0  0  0  0
   -0.1681    0.7288    3.3856 S   0  0  0  0  0  0  0  0  0  0  0  0
   -1.2836    1.7613    4.3468 C   0  0  0  0  0  0  0  0  0  0  0  0
   -1.2755    1.4607    5.3004 H   0  0  0  0  0  0  0  0  0  0  0  0
   -0.9838    2.7138    4.2931 H   0  0  0  0  0  0  0  0  0  0  0  0
   -2.2106    1.6812    3.9789 H   0  0  0  0  0  0  0  0  0  0  0  0
  1  5  1  0
  5  8  1  0
  1  2  1  0
  1  3  1  0
  1  4  1  0
  5  6  1  0
  5  7  1  0
  8  9  1  0
  8 10  1  0
  8 11  1  0
 12 16  1  0
 16 17  1  0
 12 13  1  0
 12 14  1  0
 12 15  1  0
 17 18  1  0
 17 19  1  0
 17 20  1  0
M  CHG  1   8   1
M  END
>  <PDB_ID>  (1699) 
pdb5jpi

>  <RESIDUE_NAME>  (1699) 
LYS   MET

>  <FRAG_NAME>  (1699) 
ETAM   MSM

>  <FRAG_ATOM_NUM>  (1699) 
fragi: 11  fragj: 9

>  <atom.prop.CHAIN_ID>  (1699) 
A A A A A A A A A A A Z Z Z Z Z Z Z Z Z

>  <atom.prop.IS_HEAVY_ATOM>  (1699) 
1 0 0 0 1 0 0 1 0 0 0 1 0 0 0 1 1 0 0 0

>  <DIFUSE_FUNC_ATOM>  (1699) 
n/a

>  <FINAL_SINGLE_POINT_ENERGY>  (1699) 
0

>  <NONCOV_INTER_ENERGY_QM>  (1699) 
0

>  <FF_Energy>  (1699) 
-4.96

>  <QM_Energy>  (1699) 
-11.97

>  <source>  (1699) 
ETAM_MSM

>  <Index>  (1699) 
10806

$$$$
ETAM-pdb6mfb-C-LYS-19:MSM-pdb6mfb-C-MET-336
     RDKit          3D

 20 18  0  0  0  0  0  0  0  0999 V2000
    1.2379    0.8735    0.0000 C   0  0  0  0  0  0  0  0  0  0  0  0
    2.0469    0.2863   -0.0593 H   0  0  0  0  0  0  0  0  0  0  0  0
    1.2665    1.3913    0.8556 H   0  0  0  0  0  0  0  0  0  0  0  0
    1.2629    1.5784   -0.8311 H   0  0  0  0  0  0  0  0  0  0  0  0
    0.0000    0.0000    0.0000 C   0  0  0  0  0  0  0  0  0  0  0  0
    0.0133   -0.5839   -0.8160 H   0  0  0  0  0  0  0  0  0  0  0  0
    0.0130   -0.5844    0.8169 H   0  0  0  0  0  0  0  0  0  0  0  0
   -1.2379    0.8127    0.0000 N   0  0  0  0  0  4  0  0  0  0  0  0
   -1.6461    0.8014    0.9133 H   0  0  0  0  0  0  0  0  0  0  0  0
   -1.0197    1.7557   -0.2551 H   0  0  0  0  0  0  0  0  0  0  0  0
   -1.8884    0.4328   -0.6586 H   0  0  0  0  0  0  0  0  0  0  0  0
   -2.2610    3.5568    3.4613 C   0  0  0  0  0  0  0  0  0  0  0  0
   -2.1907    2.7044    4.0506 H   0  0  0  0  0  0  0  0  0  0  0  0
   -3.2235    3.5081    3.0744 H   0  0  0  0  0  0  0  0  0  0  0  0
   -2.2080    4.4238    4.1198 H   0  0  0  0  0  0  0  0  0  0  0  0
   -1.0351    3.5048    2.1213 S   0  0  0  0  0  0  0  0  0  0  0  0
    0.4860    3.3703    3.0565 C   0  0  0  0  0  0  0  0  0  0  0  0
    0.3496    2.7536    3.8332 H   0  0  0  0  0  0  0  0  0  0  0  0
    1.2102    3.0070    2.4689 H   0  0  0  0  0  0  0  0  0  0  0  0
    0.7547    4.2736    3.3941 H   0  0  0  0  0  0  0  0  0  0  0  0
  1  5  1  0
  5  8  1  0
  1  2  1  0
  1  3  1  0
  1  4  1  0
  5  6  1  0
  5  7  1  0
  8  9  1  0
  8 10  1  0
  8 11  1  0
 12 16  1  0
 16 17  1  0
 12 13  1  0
 12 14  1  0
 12 15  1  0
 17 18  1  0
 17 19  1  0
 17 20  1  0
M  CHG  1   8   1
M  END
>  <PDB_ID>  (1700) 
pdb6mfb

>  <RESIDUE_NAME>  (1700) 
LYS   MET

>  <FRAG_NAME>  (1700) 
ETAM   MSM

>  <FRAG_ATOM_NUM>  (1700) 
fragi: 11  fragj: 9

>  <atom.prop.CHAIN_ID>  (1700) 
A A A A A A A A A A A Z Z Z Z Z Z Z Z Z

>  <atom.prop.IS_HEAVY_ATOM>  (1700) 
1 0 0 0 1 0 0 1 0 0 0 1 0 0 0 1 1 0 0 0

>  <DIFUSE_FUNC_ATOM>  (1700) 
n/a

>  <FINAL_SINGLE_POINT_ENERGY>  (1700) 
0

>  <NONCOV_INTER_ENERGY_QM>  (1700) 
0

>  <FF_Energy>  (1700) 
-5.38

>  <QM_Energy>  (1700) 
-12.88

>  <source>  (1700) 
ETAM_MSM

>  <Index>  (1700) 
10807

$$$$
ETAM-pdb6mqh-B-LYS-262:MSM-pdb6mqh-B-MET-22
     RDKit          3D

 20 18  0  0  0  0  0  0  0  0999 V2000
    1.2276    0.9124    0.0000 C   0  0  0  0  0  0  0  0  0  0  0  0
    1.2074    1.4747    0.8105 H   0  0  0  0  0  0  0  0  0  0  0  0
    1.2192    1.4587   -0.8222 H   0  0  0  0  0  0  0  0  0  0  0  0
    2.1440    0.3225    0.0134 H   0  0  0  0  0  0  0  0  0  0  0  0
    0.0000    0.0000    0.0000 C   0  0  0  0  0  0  0  0  0  0  0  0
    0.0007   -0.5470   -0.8163 H   0  0  0  0  0  0  0  0  0  0  0  0
    0.0007   -0.5478    0.8163 H   0  0  0  0  0  0  0  0  0  0  0  0
   -1.2276    0.8835   -0.0000 N   0  0  0  0  0  4  0  0  0  0  0  0
   -1.4777    1.0833   -0.9433 H   0  0  0  0  0  0  0  0  0  0  0  0
   -1.9685    0.4008    0.4579 H   0  0  0  0  0  0  0  0  0  0  0  0
   -1.0144    1.7265    0.4854 H   0  0  0  0  0  0  0  0  0  0  0  0
   -5.1474    1.2453   -0.1415 C   0  0  0  0  0  0  0  0  0  0  0  0
   -6.0976    1.3761    0.1637 H   0  0  0  0  0  0  0  0  0  0  0  0
   -4.7719    0.4364    0.3258 H   0  0  0  0  0  0  0  0  0  0  0  0
   -5.1366    1.0757   -1.2182 H   0  0  0  0  0  0  0  0  0  0  0  0
   -4.1541    2.7078    0.2170 S   0  0  0  0  0  0  0  0  0  0  0  0
   -4.3236    2.7427    2.0100 C   0  0  0  0  0  0  0  0  0  0  0  0
   -5.1305    2.2170    2.2762 H   0  0  0  0  0  0  0  0  0  0  0  0
   -3.5092    2.3411    2.4266 H   0  0  0  0  0  0  0  0  0  0  0  0
   -4.4248    3.6888    2.3141 H   0  0  0  0  0  0  0  0  0  0  0  0
  1  5  1  0
  5  8  1  0
  1  2  1  0
  1  3  1  0
  1  4  1  0
  5  6  1  0
  5  7  1  0
  8  9  1  0
  8 10  1  0
  8 11  1  0
 12 16  1  0
 16 17  1  0
 12 13  1  0
 12 14  1  0
 12 15  1  0
 17 18  1  0
 17 19  1  0
 17 20  1  0
M  CHG  1   8   1
M  END
>  <PDB_ID>  (1701) 
pdb6mqh

>  <RESIDUE_NAME>  (1701) 
LYS   MET

>  <FRAG_NAME>  (1701) 
ETAM   MSM

>  <FRAG_ATOM_NUM>  (1701) 
fragi: 11  fragj: 9

>  <atom.prop.CHAIN_ID>  (1701) 
A A A A A A A A A A A Z Z Z Z Z Z Z Z Z

>  <atom.prop.IS_HEAVY_ATOM>  (1701) 
1 0 0 0 1 0 0 1 0 0 0 1 0 0 0 1 1 0 0 0

>  <DIFUSE_FUNC_ATOM>  (1701) 
n/a

>  <FINAL_SINGLE_POINT_ENERGY>  (1701) 
0

>  <NONCOV_INTER_ENERGY_QM>  (1701) 
0

>  <FF_Energy>  (1701) 
-3.71

>  <QM_Energy>  (1701) 
-9.98

>  <source>  (1701) 
ETAM_MSM

>  <Index>  (1701) 
10823

$$$$
ETAM-pdb6mgr-C-LYS-292:MSM-pdb6mgr-C-MET-355
     RDKit          3D

 20 18  0  0  0  0  0  0  0  0999 V2000
    1.2520    0.8892    0.0000 C   0  0  0  0  0  0  0  0  0  0  0  0
    1.2082    1.4851   -0.8005 H   0  0  0  0  0  0  0  0  0  0  0  0
    2.0528    0.2961   -0.0644 H   0  0  0  0  0  0  0  0  0  0  0  0
    1.3309    1.5021    0.8979 H   0  0  0  0  0  0  0  0  0  0  0  0
    0.0000    0.0000    0.0000 C   0  0  0  0  0  0  0  0  0  0  0  0
    0.0209   -0.5798   -0.8156 H   0  0  0  0  0  0  0  0  0  0  0  0
    0.0205   -0.5797    0.8166 H   0  0  0  0  0  0  0  0  0  0  0  0
   -1.2520    0.8087    0.0000 N   0  0  0  0  0  4  0  0  0  0  0  0
   -1.2212    1.4648    0.7522 H   0  0  0  0  0  0  0  0  0  0  0  0
   -1.3300    1.2971   -0.8680 H   0  0  0  0  0  0  0  0  0  0  0  0
   -2.0377    0.2016    0.1159 H   0  0  0  0  0  0  0  0  0  0  0  0
    1.1829    2.6958   -4.6288 C   0  0  0  0  0  0  0  0  0  0  0  0
    0.6171    3.5017   -4.9166 H   0  0  0  0  0  0  0  0  0  0  0  0
    1.4826    2.2478   -5.5021 H   0  0  0  0  0  0  0  0  0  0  0  0
    2.0666    3.0631   -4.1072 H   0  0  0  0  0  0  0  0  0  0  0  0
    0.1956    1.5494   -3.6317 S   0  0  0  0  0  0  0  0  0  0  0  0
    1.1436    0.0210   -3.8083 C   0  0  0  0  0  0  0  0  0  0  0  0
    1.8178    0.1355   -4.5357 H   0  0  0  0  0  0  0  0  0  0  0  0
    1.6064   -0.1790   -2.9470 H   0  0  0  0  0  0  0  0  0  0  0  0
    0.5222   -0.7256   -4.0384 H   0  0  0  0  0  0  0  0  0  0  0  0
  1  5  1  0
  5  8  1  0
  1  2  1  0
  1  3  1  0
  1  4  1  0
  5  6  1  0
  5  7  1  0
  8  9  1  0
  8 10  1  0
  8 11  1  0
 12 16  1  0
 16 17  1  0
 12 13  1  0
 12 14  1  0
 12 15  1  0
 17 18  1  0
 17 19  1  0
 17 20  1  0
M  CHG  1   8   1
M  END
>  <PDB_ID>  (1702) 
pdb6mgr

>  <RESIDUE_NAME>  (1702) 
LYS   MET

>  <FRAG_NAME>  (1702) 
ETAM   MSM

>  <FRAG_ATOM_NUM>  (1702) 
fragi: 11  fragj: 9

>  <atom.prop.CHAIN_ID>  (1702) 
A A A A A A A A A A A Z Z Z Z Z Z Z Z Z

>  <atom.prop.IS_HEAVY_ATOM>  (1702) 
1 0 0 0 1 0 0 1 0 0 0 1 0 0 0 1 1 0 0 0

>  <DIFUSE_FUNC_ATOM>  (1702) 
n/a

>  <FINAL_SINGLE_POINT_ENERGY>  (1702) 
0

>  <NONCOV_INTER_ENERGY_QM>  (1702) 
0

>  <FF_Energy>  (1702) 
-4.97

>  <QM_Energy>  (1702) 
-10.56

>  <source>  (1702) 
ETAM_MSM

>  <Index>  (1702) 
10824

$$$$
ETAM-pdb5k5z-D-LYS-305:MSM-pdb5k5z-D-MET-31
     RDKit          3D

 20 18  0  0  0  0  0  0  0  0999 V2000
    1.2508    0.8664    0.0000 C   0  0  0  0  0  0  0  0  0  0  0  0
    1.4616    1.1170    0.9376 H   0  0  0  0  0  0  0  0  0  0  0  0
    1.0737    1.6752   -0.5482 H   0  0  0  0  0  0  0  0  0  0  0  0
    2.0972    0.3254   -0.4231 H   0  0  0  0  0  0  0  0  0  0  0  0
    0.0000    0.0000    0.0000 C   0  0  0  0  0  0  0  0  0  0  0  0
    0.0116   -0.5867   -0.8160 H   0  0  0  0  0  0  0  0  0  0  0  0
    0.0111   -0.5870    0.8161 H   0  0  0  0  0  0  0  0  0  0  0  0
   -1.2508    0.8106   -0.0000 N   0  0  0  0  0  4  0  0  0  0  0  0
   -2.0264    0.2215    0.2250 H   0  0  0  0  0  0  0  0  0  0  0  0
   -1.1735    1.5383    0.6810 H   0  0  0  0  0  0  0  0  0  0  0  0
   -1.3853    1.2109   -0.9056 H   0  0  0  0  0  0  0  0  0  0  0  0
   -2.7984   -2.3142   -2.7482 C   0  0  0  0  0  0  0  0  0  0  0  0
   -3.0532   -1.4521   -2.2904 H   0  0  0  0  0  0  0  0  0  0  0  0
   -2.9793   -3.0727   -2.1090 H   0  0  0  0  0  0  0  0  0  0  0  0
   -3.4145   -2.4415   -3.6383 H   0  0  0  0  0  0  0  0  0  0  0  0
   -1.0608   -2.2892   -3.2360 S   0  0  0  0  0  0  0  0  0  0  0  0
   -0.2647   -2.9258   -1.7639 C   0  0  0  0  0  0  0  0  0  0  0  0
   -0.7938   -3.6944   -1.4018 H   0  0  0  0  0  0  0  0  0  0  0  0
    0.6598   -3.2364   -1.9900 H   0  0  0  0  0  0  0  0  0  0  0  0
   -0.2117   -2.2041   -1.0721 H   0  0  0  0  0  0  0  0  0  0  0  0
  1  5  1  0
  5  8  1  0
  1  2  1  0
  1  3  1  0
  1  4  1  0
  5  6  1  0
  5  7  1  0
  8  9  1  0
  8 10  1  0
  8 11  1  0
 12 16  1  0
 16 17  1  0
 12 13  1  0
 12 14  1  0
 12 15  1  0
 17 18  1  0
 17 19  1  0
 17 20  1  0
M  CHG  1   8   1
M  END
>  <PDB_ID>  (1703) 
pdb5k5z

>  <RESIDUE_NAME>  (1703) 
LYS   MET

>  <FRAG_NAME>  (1703) 
ETAM   MSM

>  <FRAG_ATOM_NUM>  (1703) 
fragi: 11  fragj: 9

>  <atom.prop.CHAIN_ID>  (1703) 
A A A A A A A A A A A Z Z Z Z Z Z Z Z Z

>  <atom.prop.IS_HEAVY_ATOM>  (1703) 
1 0 0 0 1 0 0 1 0 0 0 1 0 0 0 1 1 0 0 0

>  <DIFUSE_FUNC_ATOM>  (1703) 
n/a

>  <FINAL_SINGLE_POINT_ENERGY>  (1703) 
0

>  <NONCOV_INTER_ENERGY_QM>  (1703) 
0

>  <FF_Energy>  (1703) 
9.48

>  <QM_Energy>  (1703) 
-0.3

>  <source>  (1703) 
ETAM_MSM

>  <Index>  (1703) 
10851

$$$$
ETAM-pdb6n10-A-LYS-26:MSM-pdb6n10-A-MET-220
     RDKit          3D

 20 18  0  0  0  0  0  0  0  0999 V2000
    1.2179    0.8198   -0.0000 C   0  0  0  0  0  0  0  0  0  0  0  0
    1.2752    1.2787   -0.8528 H   0  0  0  0  0  0  0  0  0  0  0  0
    1.9807    0.2308    0.1114 H   0  0  0  0  0  0  0  0  0  0  0  0
    1.2130    1.5555    0.8042 H   0  0  0  0  0  0  0  0  0  0  0  0
    0.0000    0.0000    0.0000 C   0  0  0  0  0  0  0  0  0  0  0  0
   -0.0048   -0.5568   -0.7942 H   0  0  0  0  0  0  0  0  0  0  0  0
   -0.0050   -0.5563    0.7950 H   0  0  0  0  0  0  0  0  0  0  0  0
   -1.2179    0.7845    0.0000 N   0  0  0  0  0  4  0  0  0  0  0  0
   -1.9205    0.2558   -0.1305 H   0  0  0  0  0  0  0  0  0  0  0  0
   -1.3113    1.2017    0.7813 H   0  0  0  0  0  0  0  0  0  0  0  0
   -1.1884    1.3918   -0.6495 H   0  0  0  0  0  0  0  0  0  0  0  0
   -3.0465    4.1611    0.2877 C   0  0  0  0  0  0  0  0  0  0  0  0
   -3.6029    3.6346   -0.3073 H   0  0  0  0  0  0  0  0  0  0  0  0
   -2.2271    4.4172   -0.1647 H   0  0  0  0  0  0  0  0  0  0  0  0
   -3.5853    5.0454    0.6280 H   0  0  0  0  0  0  0  0  0  0  0  0
   -2.6427    3.1841    1.7595 S   0  0  0  0  0  0  0  0  0  0  0  0
   -4.2929    2.5257    2.1218 C   0  0  0  0  0  0  0  0  0  0  0  0
   -4.2372    1.9411    2.8941 H   0  0  0  0  0  0  0  0  0  0  0  0
   -4.8938    3.2632    2.3075 H   0  0  0  0  0  0  0  0  0  0  0  0
   -4.6093    2.0267    1.3523 H   0  0  0  0  0  0  0  0  0  0  0  0
  1  5  1  0
  5  8  1  0
  1  2  1  0
  1  3  1  0
  1  4  1  0
  5  6  1  0
  5  7  1  0
  8  9  1  0
  8 10  1  0
  8 11  1  0
 12 16  1  0
 16 17  1  0
 12 13  1  0
 12 14  1  0
 12 15  1  0
 17 18  1  0
 17 19  1  0
 17 20  1  0
M  CHG  1   8   1
M  END
>  <PDB_ID>  (1704) 
pdb6n10

>  <RESIDUE_NAME>  (1704) 
LYS   MET

>  <FRAG_NAME>  (1704) 
ETAM   MSM

>  <FRAG_ATOM_NUM>  (1704) 
fragi: 11  fragj: 9

>  <atom.prop.CHAIN_ID>  (1704) 
A A A A A A A A A A A Z Z Z Z Z Z Z Z Z

>  <atom.prop.IS_HEAVY_ATOM>  (1704) 
1 0 0 0 1 0 0 1 0 0 0 1 0 0 0 1 1 0 0 0

>  <DIFUSE_FUNC_ATOM>  (1704) 
n/a

>  <FINAL_SINGLE_POINT_ENERGY>  (1704) 
0

>  <NONCOV_INTER_ENERGY_QM>  (1704) 
0

>  <FF_Energy>  (1704) 
-4.51

>  <QM_Energy>  (1704) 
-13.43

>  <source>  (1704) 
ETAM_MSM

>  <Index>  (1704) 
10854

$$$$
ETAM-pdb5k8q-A-LYS-75:MSM-pdb5k8q-A-MET-72
     RDKit          3D

 20 18  0  0  0  0  0  0  0  0999 V2000
    1.2517    0.8735   -0.0000 C   0  0  0  0  0  0  0  0  0  0  0  0
    1.0537    1.7100    0.4974 H   0  0  0  0  0  0  0  0  0  0  0  0
    1.4968    1.0752   -0.9408 H   0  0  0  0  0  0  0  0  0  0  0  0
    2.0894    0.3693    0.4818 H   0  0  0  0  0  0  0  0  0  0  0  0
    0.0000    0.0000    0.0000 C   0  0  0  0  0  0  0  0  0  0  0  0
    0.0157   -0.5859   -0.8167 H   0  0  0  0  0  0  0  0  0  0  0  0
    0.0150   -0.5859    0.8168 H   0  0  0  0  0  0  0  0  0  0  0  0
   -1.2517    0.8069    0.0000 N   0  0  0  0  0  4  0  0  0  0  0  0
   -1.0617    1.7131   -0.3754 H   0  0  0  0  0  0  0  0  0  0  0  0
   -1.9408    0.3492   -0.5615 H   0  0  0  0  0  0  0  0  0  0  0  0
   -1.5884    0.8960    0.9369 H   0  0  0  0  0  0  0  0  0  0  0  0
   -0.5906    4.9919    1.5122 C   0  0  0  0  0  0  0  0  0  0  0  0
   -1.1313    4.2961    2.0273 H   0  0  0  0  0  0  0  0  0  0  0  0
   -1.1346    5.8556    1.5451 H   0  0  0  0  0  0  0  0  0  0  0  0
    0.3561    5.1525    2.0281 H   0  0  0  0  0  0  0  0  0  0  0  0
   -0.3376    4.4640   -0.1967 S   0  0  0  0  0  0  0  0  0  0  0  0
    1.0760    5.4590   -0.6394 C   0  0  0  0  0  0  0  0  0  0  0  0
    1.3969    5.9675    0.1622 H   0  0  0  0  0  0  0  0  0  0  0  0
    1.8145    4.8693   -0.9717 H   0  0  0  0  0  0  0  0  0  0  0  0
    0.8219    6.1075   -1.3607 H   0  0  0  0  0  0  0  0  0  0  0  0
  1  5  1  0
  5  8  1  0
  1  2  1  0
  1  3  1  0
  1  4  1  0
  5  6  1  0
  5  7  1  0
  8  9  1  0
  8 10  1  0
  8 11  1  0
 12 16  1  0
 16 17  1  0
 12 13  1  0
 12 14  1  0
 12 15  1  0
 17 18  1  0
 17 19  1  0
 17 20  1  0
M  CHG  1   8   1
M  END
>  <PDB_ID>  (1705) 
pdb5k8q

>  <RESIDUE_NAME>  (1705) 
LYS   MET

>  <FRAG_NAME>  (1705) 
ETAM   MSM

>  <FRAG_ATOM_NUM>  (1705) 
fragi: 11  fragj: 9

>  <atom.prop.CHAIN_ID>  (1705) 
A A A A A A A A A A A Z Z Z Z Z Z Z Z Z

>  <atom.prop.IS_HEAVY_ATOM>  (1705) 
1 0 0 0 1 0 0 1 0 0 0 1 0 0 0 1 1 0 0 0

>  <DIFUSE_FUNC_ATOM>  (1705) 
n/a

>  <FINAL_SINGLE_POINT_ENERGY>  (1705) 
0

>  <NONCOV_INTER_ENERGY_QM>  (1705) 
0

>  <FF_Energy>  (1705) 
-5.18

>  <QM_Energy>  (1705) 
-12.1

>  <source>  (1705) 
ETAM_MSM

>  <Index>  (1705) 
10860

$$$$
ETAM-pdb5kdj-A-LYS-552:MSM-pdb5kdj-A-MET-718
     RDKit          3D

 20 18  0  0  0  0  0  0  0  0999 V2000
    1.2905    0.8146   -0.0000 C   0  0  0  0  0  0  0  0  0  0  0  0
    1.3756    1.2669   -0.8895 H   0  0  0  0  0  0  0  0  0  0  0  0
    2.0579    0.1852    0.1262 H   0  0  0  0  0  0  0  0  0  0  0  0
    1.3174    1.5700    0.7853 H   0  0  0  0  0  0  0  0  0  0  0  0
    0.0000    0.0000    0.0000 C   0  0  0  0  0  0  0  0  0  0  0  0
    0.0103   -0.6211   -0.8167 H   0  0  0  0  0  0  0  0  0  0  0  0
    0.0106   -0.6217    0.8164 H   0  0  0  0  0  0  0  0  0  0  0  0
   -1.2905    0.7586    0.0000 N   0  0  0  0  0  4  0  0  0  0  0  0
   -1.1903    1.5748   -0.5653 H   0  0  0  0  0  0  0  0  0  0  0  0
   -2.0124    0.1767   -0.3707 H   0  0  0  0  0  0  0  0  0  0  0  0
   -1.5152    1.0209    0.9363 H   0  0  0  0  0  0  0  0  0  0  0  0
   -1.8189   -1.2436   -3.1601 C   0  0  0  0  0  0  0  0  0  0  0  0
   -2.6714   -1.4737   -2.6443 H   0  0  0  0  0  0  0  0  0  0  0  0
   -1.0511   -1.6822   -2.6464 H   0  0  0  0  0  0  0  0  0  0  0  0
   -1.8769   -1.6796   -4.1574 H   0  0  0  0  0  0  0  0  0  0  0  0
   -1.5916    0.5233   -3.2519 S   0  0  0  0  0  0  0  0  0  0  0  0
    0.1076    0.6203   -3.8707 C   0  0  0  0  0  0  0  0  0  0  0  0
    0.1246    1.1914   -4.6891 H   0  0  0  0  0  0  0  0  0  0  0  0
    0.6884    1.0206   -3.1658 H   0  0  0  0  0  0  0  0  0  0  0  0
    0.4269   -0.2992   -4.0916 H   0  0  0  0  0  0  0  0  0  0  0  0
  1  5  1  0
  5  8  1  0
  1  2  1  0
  1  3  1  0
  1  4  1  0
  5  6  1  0
  5  7  1  0
  8  9  1  0
  8 10  1  0
  8 11  1  0
 12 16  1  0
 16 17  1  0
 12 13  1  0
 12 14  1  0
 12 15  1  0
 17 18  1  0
 17 19  1  0
 17 20  1  0
M  CHG  1   8   1
M  END
>  <PDB_ID>  (1706) 
pdb5kdj

>  <RESIDUE_NAME>  (1706) 
LYS   MET

>  <FRAG_NAME>  (1706) 
ETAM   MSM

>  <FRAG_ATOM_NUM>  (1706) 
fragi: 11  fragj: 9

>  <atom.prop.CHAIN_ID>  (1706) 
A A A A A A A A A A A Z Z Z Z Z Z Z Z Z

>  <atom.prop.IS_HEAVY_ATOM>  (1706) 
1 0 0 0 1 0 0 1 0 0 0 1 0 0 0 1 1 0 0 0

>  <DIFUSE_FUNC_ATOM>  (1706) 
n/a

>  <FINAL_SINGLE_POINT_ENERGY>  (1706) 
0

>  <NONCOV_INTER_ENERGY_QM>  (1706) 
0

>  <FF_Energy>  (1706) 
-4.63

>  <QM_Energy>  (1706) 
-12.11

>  <source>  (1706) 
ETAM_MSM

>  <Index>  (1706) 
10894

$$$$
ETAM-pdb5kdj-B-LYS-552:MSM-pdb5kdj-B-MET-718
     RDKit          3D

 20 18  0  0  0  0  0  0  0  0999 V2000
    1.3064    0.8038   -0.0000 C   0  0  0  0  0  0  0  0  0  0  0  0
    1.4238    1.2124   -0.9046 H   0  0  0  0  0  0  0  0  0  0  0  0
    2.0615    0.1766    0.1852 H   0  0  0  0  0  0  0  0  0  0  0  0
    1.3220    1.5989    0.7454 H   0  0  0  0  0  0  0  0  0  0  0  0
    0.0000    0.0000    0.0000 C   0  0  0  0  0  0  0  0  0  0  0  0
    0.0013   -0.6206   -0.8161 H   0  0  0  0  0  0  0  0  0  0  0  0
    0.0008   -0.6215    0.8166 H   0  0  0  0  0  0  0  0  0  0  0  0
   -1.3064    0.7714    0.0000 N   0  0  0  0  0  4  0  0  0  0  0  0
   -1.1086    1.7299   -0.1772 H   0  0  0  0  0  0  0  0  0  0  0  0
   -1.8928    0.4013   -0.7131 H   0  0  0  0  0  0  0  0  0  0  0  0
   -1.7370    0.6665    0.8909 H   0  0  0  0  0  0  0  0  0  0  0  0
   -1.6340   -1.4008   -3.2067 C   0  0  0  0  0  0  0  0  0  0  0  0
   -2.5180   -1.5884   -2.7292 H   0  0  0  0  0  0  0  0  0  0  0  0
   -0.9063   -1.8289   -2.6300 H   0  0  0  0  0  0  0  0  0  0  0  0
   -1.6464   -1.8850   -4.1833 H   0  0  0  0  0  0  0  0  0  0  0  0
   -1.3603    0.3748   -3.3519 S   0  0  0  0  0  0  0  0  0  0  0  0
    0.3625    0.3686   -3.8679 C   0  0  0  0  0  0  0  0  0  0  0  0
    0.5030   -0.3513   -4.5475 H   0  0  0  0  0  0  0  0  0  0  0  0
    0.5926    1.2557   -4.2682 H   0  0  0  0  0  0  0  0  0  0  0  0
    0.9464    0.1987   -3.0739 H   0  0  0  0  0  0  0  0  0  0  0  0
  1  5  1  0
  5  8  1  0
  1  2  1  0
  1  3  1  0
  1  4  1  0
  5  6  1  0
  5  7  1  0
  8  9  1  0
  8 10  1  0
  8 11  1  0
 12 16  1  0
 16 17  1  0
 12 13  1  0
 12 14  1  0
 12 15  1  0
 17 18  1  0
 17 19  1  0
 17 20  1  0
M  CHG  1   8   1
M  END
>  <PDB_ID>  (1707) 
pdb5kdj

>  <RESIDUE_NAME>  (1707) 
LYS   MET

>  <FRAG_NAME>  (1707) 
ETAM   MSM

>  <FRAG_ATOM_NUM>  (1707) 
fragi: 11  fragj: 9

>  <atom.prop.CHAIN_ID>  (1707) 
A A A A A A A A A A A Z Z Z Z Z Z Z Z Z

>  <atom.prop.IS_HEAVY_ATOM>  (1707) 
1 0 0 0 1 0 0 1 0 0 0 1 0 0 0 1 1 0 0 0

>  <DIFUSE_FUNC_ATOM>  (1707) 
n/a

>  <FINAL_SINGLE_POINT_ENERGY>  (1707) 
0

>  <NONCOV_INTER_ENERGY_QM>  (1707) 
0

>  <FF_Energy>  (1707) 
-4.86

>  <QM_Energy>  (1707) 
-12.66

>  <source>  (1707) 
ETAM_MSM

>  <Index>  (1707) 
10896

$$$$
ETAM-pdb6ndu-A-LYS-184:MSM-pdb6ndu-A-MET-181
     RDKit          3D

 20 18  0  0  0  0  0  0  0  0999 V2000
    1.2485    0.8764   -0.0000 C   0  0  0  0  0  0  0  0  0  0  0  0
    1.2656    1.4013    0.8451 H   0  0  0  0  0  0  0  0  0  0  0  0
    1.2061    1.4863   -0.7845 H   0  0  0  0  0  0  0  0  0  0  0  0
    2.1598    0.2817   -0.0634 H   0  0  0  0  0  0  0  0  0  0  0  0
    0.0000    0.0000    0.0000 C   0  0  0  0  0  0  0  0  0  0  0  0
    0.0116   -0.5806   -0.8158 H   0  0  0  0  0  0  0  0  0  0  0  0
    0.0112   -0.5812    0.8162 H   0  0  0  0  0  0  0  0  0  0  0  0
   -1.2485    0.8195   -0.0000 N   0  0  0  0  0  4  0  0  0  0  0  0
   -2.0087    0.2612   -0.3295 H   0  0  0  0  0  0  0  0  0  0  0  0
   -1.4378    1.1301    0.9295 H   0  0  0  0  0  0  0  0  0  0  0  0
   -1.1241    1.6077   -0.6001 H   0  0  0  0  0  0  0  0  0  0  0  0
   -1.3510   -0.2843    4.9242 C   0  0  0  0  0  0  0  0  0  0  0  0
   -2.0899   -0.9963    5.0816 H   0  0  0  0  0  0  0  0  0  0  0  0
   -1.5147    0.4102    5.6794 H   0  0  0  0  0  0  0  0  0  0  0  0
   -0.3895   -0.7602    5.1173 H   0  0  0  0  0  0  0  0  0  0  0  0
   -1.5356    0.4818    3.2974 S   0  0  0  0  0  0  0  0  0  0  0  0
   -2.5593   -0.7291    2.4559 C   0  0  0  0  0  0  0  0  0  0  0  0
   -2.8513   -0.3626    1.5722 H   0  0  0  0  0  0  0  0  0  0  0  0
   -2.0337   -1.5676    2.3114 H   0  0  0  0  0  0  0  0  0  0  0  0
   -3.3641   -0.9319    3.0150 H   0  0  0  0  0  0  0  0  0  0  0  0
  1  5  1  0
  5  8  1  0
  1  2  1  0
  1  3  1  0
  1  4  1  0
  5  6  1  0
  5  7  1  0
  8  9  1  0
  8 10  1  0
  8 11  1  0
 12 16  1  0
 16 17  1  0
 12 13  1  0
 12 14  1  0
 12 15  1  0
 17 18  1  0
 17 19  1  0
 17 20  1  0
M  CHG  1   8   1
M  END
>  <PDB_ID>  (1708) 
pdb6ndu

>  <RESIDUE_NAME>  (1708) 
LYS   MET

>  <FRAG_NAME>  (1708) 
ETAM   MSM

>  <FRAG_ATOM_NUM>  (1708) 
fragi: 11  fragj: 9

>  <atom.prop.CHAIN_ID>  (1708) 
A A A A A A A A A A A Z Z Z Z Z Z Z Z Z

>  <atom.prop.IS_HEAVY_ATOM>  (1708) 
1 0 0 0 1 0 0 1 0 0 0 1 0 0 0 1 1 0 0 0

>  <DIFUSE_FUNC_ATOM>  (1708) 
n/a

>  <FINAL_SINGLE_POINT_ENERGY>  (1708) 
0

>  <NONCOV_INTER_ENERGY_QM>  (1708) 
0

>  <FF_Energy>  (1708) 
-3.13

>  <QM_Energy>  (1708) 
-9.04

>  <source>  (1708) 
ETAM_MSM

>  <Index>  (1708) 
10906

$$$$
ETAM-pdb6nff-A-LYS-716:MSM-pdb6nff-A-MET-769
     RDKit          3D

 20 18  0  0  0  0  0  0  0  0999 V2000
    1.2430    0.8765   -0.0000 C   0  0  0  0  0  0  0  0  0  0  0  0
    1.1915    1.4958    0.7747 H   0  0  0  0  0  0  0  0  0  0  0  0
    1.2693    1.3854   -0.8525 H   0  0  0  0  0  0  0  0  0  0  0  0
    2.1457    0.2714    0.0849 H   0  0  0  0  0  0  0  0  0  0  0  0
    0.0000    0.0000    0.0000 C   0  0  0  0  0  0  0  0  0  0  0  0
    0.0080   -0.5774   -0.8166 H   0  0  0  0  0  0  0  0  0  0  0  0
    0.0079   -0.5777    0.8163 H   0  0  0  0  0  0  0  0  0  0  0  0
   -1.2430    0.8295    0.0000 N   0  0  0  0  0  4  0  0  0  0  0  0
   -1.1569    1.5512    0.6849 H   0  0  0  0  0  0  0  0  0  0  0  0
   -1.3672    1.2353   -0.9035 H   0  0  0  0  0  0  0  0  0  0  0  0
   -2.0256    0.2486    0.2189 H   0  0  0  0  0  0  0  0  0  0  0  0
   -4.1760   -1.1432    2.2843 C   0  0  0  0  0  0  0  0  0  0  0  0
   -4.8834   -1.8621    2.3548 H   0  0  0  0  0  0  0  0  0  0  0  0
   -4.5802   -0.3641    1.7832 H   0  0  0  0  0  0  0  0  0  0  0  0
   -3.9321   -0.8084    3.2925 H   0  0  0  0  0  0  0  0  0  0  0  0
   -2.7068   -1.7361    1.5093 S   0  0  0  0  0  0  0  0  0  0  0  0
   -3.3889   -2.5502    0.0389 C   0  0  0  0  0  0  0  0  0  0  0  0
   -4.3441   -2.2821   -0.0671 H   0  0  0  0  0  0  0  0  0  0  0  0
   -2.8650   -2.2666   -0.7614 H   0  0  0  0  0  0  0  0  0  0  0  0
   -3.3234   -3.5386    0.1554 H   0  0  0  0  0  0  0  0  0  0  0  0
  1  5  1  0
  5  8  1  0
  1  2  1  0
  1  3  1  0
  1  4  1  0
  5  6  1  0
  5  7  1  0
  8  9  1  0
  8 10  1  0
  8 11  1  0
 12 16  1  0
 16 17  1  0
 12 13  1  0
 12 14  1  0
 12 15  1  0
 17 18  1  0
 17 19  1  0
 17 20  1  0
M  CHG  1   8   1
M  END
>  <PDB_ID>  (1709) 
pdb6nff

>  <RESIDUE_NAME>  (1709) 
LYS   MET

>  <FRAG_NAME>  (1709) 
ETAM   MSM

>  <FRAG_ATOM_NUM>  (1709) 
fragi: 11  fragj: 9

>  <atom.prop.CHAIN_ID>  (1709) 
A A A A A A A A A A A Z Z Z Z Z Z Z Z Z

>  <atom.prop.IS_HEAVY_ATOM>  (1709) 
1 0 0 0 1 0 0 1 0 0 0 1 0 0 0 1 1 0 0 0

>  <DIFUSE_FUNC_ATOM>  (1709) 
n/a

>  <FINAL_SINGLE_POINT_ENERGY>  (1709) 
0

>  <NONCOV_INTER_ENERGY_QM>  (1709) 
0

>  <FF_Energy>  (1709) 
-4.99

>  <QM_Energy>  (1709) 
-15.43

>  <source>  (1709) 
ETAM_MSM

>  <Index>  (1709) 
10909

$$$$
ETAM-pdb6nff-A-LYS-487:MSM-pdb6nff-A-MET-769
     RDKit          3D

 20 18  0  0  0  0  0  0  0  0999 V2000
    1.2401    0.8330   -0.0000 C   0  0  0  0  0  0  0  0  0  0  0  0
    1.2003    1.4847    0.7363 H   0  0  0  0  0  0  0  0  0  0  0  0
    1.3465    1.2669   -0.8759 H   0  0  0  0  0  0  0  0  0  0  0  0
    2.0922    0.1739    0.1667 H   0  0  0  0  0  0  0  0  0  0  0  0
    0.0000    0.0000    0.0000 C   0  0  0  0  0  0  0  0  0  0  0  0
   -0.0096   -0.5916   -0.8162 H   0  0  0  0  0  0  0  0  0  0  0  0
   -0.0096   -0.5924    0.8167 H   0  0  0  0  0  0  0  0  0  0  0  0
   -1.2401    0.8290   -0.0000 N   0  0  0  0  0  4  0  0  0  0  0  0
   -1.5439    0.9683    0.9419 H   0  0  0  0  0  0  0  0  0  0  0  0
   -1.0469    1.7124   -0.4245 H   0  0  0  0  0  0  0  0  0  0  0  0
   -1.9524    0.3563   -0.5167 H   0  0  0  0  0  0  0  0  0  0  0  0
   -4.7699   -1.1635   -1.6780 C   0  0  0  0  0  0  0  0  0  0  0  0
   -4.7124   -1.6165   -0.7759 H   0  0  0  0  0  0  0  0  0  0  0  0
   -5.2818   -1.7772   -2.2967 H   0  0  0  0  0  0  0  0  0  0  0  0
   -5.3445   -0.2449   -1.5593 H   0  0  0  0  0  0  0  0  0  0  0  0
   -3.1763   -0.7607   -2.3174 S   0  0  0  0  0  0  0  0  0  0  0  0
   -2.3001   -2.3331   -2.0940 C   0  0  0  0  0  0  0  0  0  0  0  0
   -2.9637   -3.0477   -1.8836 H   0  0  0  0  0  0  0  0  0  0  0  0
   -1.8150   -2.5567   -2.9367 H   0  0  0  0  0  0  0  0  0  0  0  0
   -1.6509   -2.2390   -1.3427 H   0  0  0  0  0  0  0  0  0  0  0  0
  1  5  1  0
  5  8  1  0
  1  2  1  0
  1  3  1  0
  1  4  1  0
  5  6  1  0
  5  7  1  0
  8  9  1  0
  8 10  1  0
  8 11  1  0
 12 16  1  0
 16 17  1  0
 12 13  1  0
 12 14  1  0
 12 15  1  0
 17 18  1  0
 17 19  1  0
 17 20  1  0
M  CHG  1   8   1
M  END
>  <PDB_ID>  (1710) 
pdb6nff

>  <RESIDUE_NAME>  (1710) 
LYS   MET

>  <FRAG_NAME>  (1710) 
ETAM   MSM

>  <FRAG_ATOM_NUM>  (1710) 
fragi: 11  fragj: 9

>  <atom.prop.CHAIN_ID>  (1710) 
A A A A A A A A A A A Z Z Z Z Z Z Z Z Z

>  <atom.prop.IS_HEAVY_ATOM>  (1710) 
1 0 0 0 1 0 0 1 0 0 0 1 0 0 0 1 1 0 0 0

>  <DIFUSE_FUNC_ATOM>  (1710) 
n/a

>  <FINAL_SINGLE_POINT_ENERGY>  (1710) 
0

>  <NONCOV_INTER_ENERGY_QM>  (1710) 
0

>  <FF_Energy>  (1710) 
-4.96

>  <QM_Energy>  (1710) 
-15.72

>  <source>  (1710) 
ETAM_MSM

>  <Index>  (1710) 
10930

$$$$
ETAM-pdb6nlx-C-LYS-190:MSM-pdb6nlx-B-MET-35
     RDKit          3D

 20 18  0  0  0  0  0  0  0  0999 V2000
    1.2323    0.8747    0.0000 C   0  0  0  0  0  0  0  0  0  0  0  0
    1.8784    0.5190    0.6769 H   0  0  0  0  0  0  0  0  0  0  0  0
    0.9651    1.8048    0.2553 H   0  0  0  0  0  0  0  0  0  0  0  0
    1.7256    0.9055   -0.9715 H   0  0  0  0  0  0  0  0  0  0  0  0
    0.0000    0.0000    0.0000 C   0  0  0  0  0  0  0  0  0  0  0  0
    0.0073   -0.5788   -0.8159 H   0  0  0  0  0  0  0  0  0  0  0  0
    0.0076   -0.5787    0.8167 H   0  0  0  0  0  0  0  0  0  0  0  0
   -1.2323    0.8282    0.0000 N   0  0  0  0  0  4  0  0  0  0  0  0
   -1.2015    1.4726    0.7646 H   0  0  0  0  0  0  0  0  0  0  0  0
   -1.2941    1.3341   -0.8602 H   0  0  0  0  0  0  0  0  0  0  0  0
   -2.0326    0.2356    0.0963 H   0  0  0  0  0  0  0  0  0  0  0  0
   -4.1638    0.3565   -2.2855 C   0  0  0  0  0  0  0  0  0  0  0  0
   -5.0981    0.7285   -2.1010 H   0  0  0  0  0  0  0  0  0  0  0  0
   -4.2237   -0.1135   -3.1920 H   0  0  0  0  0  0  0  0  0  0  0  0
   -3.4696    1.1923   -2.3729 H   0  0  0  0  0  0  0  0  0  0  0  0
   -3.6712   -0.8050   -0.9955 S   0  0  0  0  0  0  0  0  0  0  0  0
   -1.9970   -1.2053   -1.4796 C   0  0  0  0  0  0  0  0  0  0  0  0
   -2.0099   -1.7439   -2.3235 H   0  0  0  0  0  0  0  0  0  0  0  0
   -1.4792   -0.3619   -1.6340 H   0  0  0  0  0  0  0  0  0  0  0  0
   -1.5545   -1.7368   -0.7555 H   0  0  0  0  0  0  0  0  0  0  0  0
  1  5  1  0
  5  8  1  0
  1  2  1  0
  1  3  1  0
  1  4  1  0
  5  6  1  0
  5  7  1  0
  8  9  1  0
  8 10  1  0
  8 11  1  0
 12 16  1  0
 16 17  1  0
 12 13  1  0
 12 14  1  0
 12 15  1  0
 17 18  1  0
 17 19  1  0
 17 20  1  0
M  CHG  1   8   1
M  END
>  <PDB_ID>  (1711) 
pdb6nlx

>  <RESIDUE_NAME>  (1711) 
LYS   MET

>  <FRAG_NAME>  (1711) 
ETAM   MSM

>  <FRAG_ATOM_NUM>  (1711) 
fragi: 11  fragj: 9

>  <atom.prop.CHAIN_ID>  (1711) 
A A A A A A A A A A A Z Z Z Z Z Z Z Z Z

>  <atom.prop.IS_HEAVY_ATOM>  (1711) 
1 0 0 0 1 0 0 1 0 0 0 1 0 0 0 1 1 0 0 0

>  <DIFUSE_FUNC_ATOM>  (1711) 
n/a

>  <FINAL_SINGLE_POINT_ENERGY>  (1711) 
0

>  <NONCOV_INTER_ENERGY_QM>  (1711) 
0

>  <FF_Energy>  (1711) 
46.97

>  <QM_Energy>  (1711) 
4.99

>  <source>  (1711) 
ETAM_MSM

>  <Index>  (1711) 
10936

$$$$
ETAM-pdb6nlx-A-LYS-190:MSM-pdb6nlx-D-MET-35
     RDKit          3D

 20 18  0  0  0  0  0  0  0  0999 V2000
    1.2326    0.8766   -0.0000 C   0  0  0  0  0  0  0  0  0  0  0  0
    1.2125    1.4558    0.8168 H   0  0  0  0  0  0  0  0  0  0  0  0
    1.2120    1.4561   -0.8163 H   0  0  0  0  0  0  0  0  0  0  0  0
    2.1586    0.3015    0.0003 H   0  0  0  0  0  0  0  0  0  0  0  0
    0.0000    0.0000    0.0000 C   0  0  0  0  0  0  0  0  0  0  0  0
    0.0099   -0.5785   -0.8160 H   0  0  0  0  0  0  0  0  0  0  0  0
    0.0094   -0.5789    0.8157 H   0  0  0  0  0  0  0  0  0  0  0  0
   -1.2326    0.8260   -0.0000 N   0  0  0  0  0  4  0  0  0  0  0  0
   -2.0348    0.2271    0.0162 H   0  0  0  0  0  0  0  0  0  0  0  0
   -1.2405    1.4143    0.8089 H   0  0  0  0  0  0  0  0  0  0  0  0
   -1.2560    1.3911   -0.8247 H   0  0  0  0  0  0  0  0  0  0  0  0
   -2.5912   -3.1708    0.0227 C   0  0  0  0  0  0  0  0  0  0  0  0
   -3.4643   -3.2434   -0.4594 H   0  0  0  0  0  0  0  0  0  0  0  0
   -2.3979   -4.0325    0.4925 H   0  0  0  0  0  0  0  0  0  0  0  0
   -1.7929   -2.9406   -0.6827 H   0  0  0  0  0  0  0  0  0  0  0  0
   -2.6600   -1.8019    1.2348 S   0  0  0  0  0  0  0  0  0  0  0  0
   -1.0018   -1.9081    1.9151 C   0  0  0  0  0  0  0  0  0  0  0  0
   -0.9596   -2.6586    2.5752 H   0  0  0  0  0  0  0  0  0  0  0  0
   -0.3488   -2.0765    1.1772 H   0  0  0  0  0  0  0  0  0  0  0  0
   -0.7736   -1.0492    2.3737 H   0  0  0  0  0  0  0  0  0  0  0  0
  1  5  1  0
  5  8  1  0
  1  2  1  0
  1  3  1  0
  1  4  1  0
  5  6  1  0
  5  7  1  0
  8  9  1  0
  8 10  1  0
  8 11  1  0
 12 16  1  0
 16 17  1  0
 12 13  1  0
 12 14  1  0
 12 15  1  0
 17 18  1  0
 17 19  1  0
 17 20  1  0
M  CHG  1   8   1
M  END
>  <PDB_ID>  (1712) 
pdb6nlx

>  <RESIDUE_NAME>  (1712) 
LYS   MET

>  <FRAG_NAME>  (1712) 
ETAM   MSM

>  <FRAG_ATOM_NUM>  (1712) 
fragi: 11  fragj: 9

>  <atom.prop.CHAIN_ID>  (1712) 
A A A A A A A A A A A Z Z Z Z Z Z Z Z Z

>  <atom.prop.IS_HEAVY_ATOM>  (1712) 
1 0 0 0 1 0 0 1 0 0 0 1 0 0 0 1 1 0 0 0

>  <DIFUSE_FUNC_ATOM>  (1712) 
n/a

>  <FINAL_SINGLE_POINT_ENERGY>  (1712) 
0

>  <NONCOV_INTER_ENERGY_QM>  (1712) 
0

>  <FF_Energy>  (1712) 
44.24

>  <QM_Energy>  (1712) 
-4.16

>  <source>  (1712) 
ETAM_MSM

>  <Index>  (1712) 
10937

$$$$
ETAM-pdb5ksw-A-LYS-170:MSM-pdb5ksw-A-MET-247
     RDKit          3D

 20 18  0  0  0  0  0  0  0  0999 V2000
    1.2391    0.8499    0.0000 C   0  0  0  0  0  0  0  0  0  0  0  0
    1.1848    1.4984    0.7600 H   0  0  0  0  0  0  0  0  0  0  0  0
    1.2850    1.3520   -0.8640 H   0  0  0  0  0  0  0  0  0  0  0  0
    2.1447    0.2534    0.1102 H   0  0  0  0  0  0  0  0  0  0  0  0
    0.0000    0.0000    0.0000 C   0  0  0  0  0  0  0  0  0  0  0  0
    0.0035   -0.5917   -0.8166 H   0  0  0  0  0  0  0  0  0  0  0  0
    0.0035   -0.5912    0.8165 H   0  0  0  0  0  0  0  0  0  0  0  0
   -1.2391    0.8132   -0.0000 N   0  0  0  0  0  4  0  0  0  0  0  0
   -1.3424    1.2647    0.8864 H   0  0  0  0  0  0  0  0  0  0  0  0
   -1.1857    1.5050   -0.7211 H   0  0  0  0  0  0  0  0  0  0  0  0
   -2.0280    0.2206   -0.1658 H   0  0  0  0  0  0  0  0  0  0  0  0
   -2.0449   -3.1279    3.1343 C   0  0  0  0  0  0  0  0  0  0  0  0
   -1.1009   -3.4972    3.3761 H   0  0  0  0  0  0  0  0  0  0  0  0
   -2.3215   -3.7073    2.3133 H   0  0  0  0  0  0  0  0  0  0  0  0
   -2.7121   -3.3933    3.9545 H   0  0  0  0  0  0  0  0  0  0  0  0
   -1.9613   -1.3808    2.6926 S   0  0  0  0  0  0  0  0  0  0  0  0
   -0.7674   -0.7981    3.8753 C   0  0  0  0  0  0  0  0  0  0  0  0
   -0.2326   -0.0474    3.4801 H   0  0  0  0  0  0  0  0  0  0  0  0
   -1.2348   -0.4670    4.6991 H   0  0  0  0  0  0  0  0  0  0  0  0
   -0.1465   -1.5432    4.1299 H   0  0  0  0  0  0  0  0  0  0  0  0
  1  5  1  0
  5  8  1  0
  1  2  1  0
  1  3  1  0
  1  4  1  0
  5  6  1  0
  5  7  1  0
  8  9  1  0
  8 10  1  0
  8 11  1  0
 12 16  1  0
 16 17  1  0
 12 13  1  0
 12 14  1  0
 12 15  1  0
 17 18  1  0
 17 19  1  0
 17 20  1  0
M  CHG  1   8   1
M  END
>  <PDB_ID>  (1713) 
pdb5ksw

>  <RESIDUE_NAME>  (1713) 
LYS   MET

>  <FRAG_NAME>  (1713) 
ETAM   MSM

>  <FRAG_ATOM_NUM>  (1713) 
fragi: 11  fragj: 9

>  <atom.prop.CHAIN_ID>  (1713) 
A A A A A A A A A A A Z Z Z Z Z Z Z Z Z

>  <atom.prop.IS_HEAVY_ATOM>  (1713) 
1 0 0 0 1 0 0 1 0 0 0 1 0 0 0 1 1 0 0 0

>  <DIFUSE_FUNC_ATOM>  (1713) 
n/a

>  <FINAL_SINGLE_POINT_ENERGY>  (1713) 
0

>  <NONCOV_INTER_ENERGY_QM>  (1713) 
0

>  <FF_Energy>  (1713) 
-4.94

>  <QM_Energy>  (1713) 
-10.58

>  <source>  (1713) 
ETAM_MSM

>  <Index>  (1713) 
10957

$$$$
ETAM-pdb5kq0-A-LYS-422:MSM-pdb5kq0-A-MET-266
     RDKit          3D

 20 18  0  0  0  0  0  0  0  0999 V2000
    1.2031    0.8699   -0.0000 C   0  0  0  0  0  0  0  0  0  0  0  0
    1.2410    1.3990    0.8394 H   0  0  0  0  0  0  0  0  0  0  0  0
    1.1902    1.4694   -0.7915 H   0  0  0  0  0  0  0  0  0  0  0  0
    2.1129    0.2721   -0.0536 H   0  0  0  0  0  0  0  0  0  0  0  0
    0.0000    0.0000    0.0000 C   0  0  0  0  0  0  0  0  0  0  0  0
   -0.0089   -0.5673   -0.8158 H   0  0  0  0  0  0  0  0  0  0  0  0
   -0.0098   -0.5674    0.8160 H   0  0  0  0  0  0  0  0  0  0  0  0
   -1.2031    0.8656    0.0000 N   0  0  0  0  0  4  0  0  0  0  0  0
   -2.0139    0.3122   -0.1943 H   0  0  0  0  0  0  0  0  0  0  0  0
   -1.3032    1.2985    0.8959 H   0  0  0  0  0  0  0  0  0  0  0  0
   -1.1075    1.5719   -0.7018 H   0  0  0  0  0  0  0  0  0  0  0  0
   -0.4509    0.9632   -5.2455 C   0  0  0  0  0  0  0  0  0  0  0  0
   -0.7146    0.0045   -5.1331 H   0  0  0  0  0  0  0  0  0  0  0  0
    0.0848    1.0631   -6.0852 H   0  0  0  0  0  0  0  0  0  0  0  0
   -1.3595    1.5567   -5.3469 H   0  0  0  0  0  0  0  0  0  0  0  0
    0.5021    1.5537   -3.7900 S   0  0  0  0  0  0  0  0  0  0  0  0
    2.0184    0.6036   -3.8852 C   0  0  0  0  0  0  0  0  0  0  0  0
    2.0220   -0.0954   -3.1683 H   0  0  0  0  0  0  0  0  0  0  0  0
    2.0815    0.1606   -4.7809 H   0  0  0  0  0  0  0  0  0  0  0  0
    2.8033    1.2114   -3.7600 H   0  0  0  0  0  0  0  0  0  0  0  0
  1  5  1  0
  5  8  1  0
  1  2  1  0
  1  3  1  0
  1  4  1  0
  5  6  1  0
  5  7  1  0
  8  9  1  0
  8 10  1  0
  8 11  1  0
 12 16  1  0
 16 17  1  0
 12 13  1  0
 12 14  1  0
 12 15  1  0
 17 18  1  0
 17 19  1  0
 17 20  1  0
M  CHG  1   8   1
M  END
>  <PDB_ID>  (1714) 
pdb5kq0

>  <RESIDUE_NAME>  (1714) 
LYS   MET

>  <FRAG_NAME>  (1714) 
ETAM   MSM

>  <FRAG_ATOM_NUM>  (1714) 
fragi: 11  fragj: 9

>  <atom.prop.CHAIN_ID>  (1714) 
A A A A A A A A A A A Z Z Z Z Z Z Z Z Z

>  <atom.prop.IS_HEAVY_ATOM>  (1714) 
1 0 0 0 1 0 0 1 0 0 0 1 0 0 0 1 1 0 0 0

>  <DIFUSE_FUNC_ATOM>  (1714) 
n/a

>  <FINAL_SINGLE_POINT_ENERGY>  (1714) 
0

>  <NONCOV_INTER_ENERGY_QM>  (1714) 
0

>  <FF_Energy>  (1714) 
-4.34

>  <QM_Energy>  (1714) 
-10.06

>  <source>  (1714) 
ETAM_MSM

>  <Index>  (1714) 
10964

$$$$
ETAM-pdb6nvw-B-LYS-424:MSM-pdb6nvw-B-MET-433
     RDKit          3D

 20 18  0  0  0  0  0  0  0  0999 V2000
    1.2542    0.8710    0.0000 C   0  0  0  0  0  0  0  0  0  0  0  0
    1.6731    0.8055    0.8727 H   0  0  0  0  0  0  0  0  0  0  0  0
    0.9903    1.7879   -0.1729 H   0  0  0  0  0  0  0  0  0  0  0  0
    1.9591    0.5460   -0.7652 H   0  0  0  0  0  0  0  0  0  0  0  0
    0.0000    0.0000    0.0000 C   0  0  0  0  0  0  0  0  0  0  0  0
    0.0002   -0.5571   -0.7937 H   0  0  0  0  0  0  0  0  0  0  0  0
    0.0005   -0.5560    0.7948 H   0  0  0  0  0  0  0  0  0  0  0  0
   -1.2542    0.8030   -0.0000 N   0  0  0  0  0  4  0  0  0  0  0  0
   -1.2904    1.3094   -0.7307 H   0  0  0  0  0  0  0  0  0  0  0  0
   -1.9613    0.2631    0.0125 H   0  0  0  0  0  0  0  0  0  0  0  0
   -1.2789    1.3282    0.7176 H   0  0  0  0  0  0  0  0  0  0  0  0
   -4.4029    4.2532    1.8486 C   0  0  0  0  0  0  0  0  0  0  0  0
   -3.5225    4.5040    2.1705 H   0  0  0  0  0  0  0  0  0  0  0  0
   -4.9804    4.0353    2.5966 H   0  0  0  0  0  0  0  0  0  0  0  0
   -4.8330    5.0908    1.2994 H   0  0  0  0  0  0  0  0  0  0  0  0
   -4.2249    2.7761    0.8310 S   0  0  0  0  0  0  0  0  0  0  0  0
   -5.9388    2.3143    0.5880 C   0  0  0  0  0  0  0  0  0  0  0  0
   -6.3658    2.9759    0.0219 H   0  0  0  0  0  0  0  0  0  0  0  0
   -5.9732    1.4435    0.1632 H   0  0  0  0  0  0  0  0  0  0  0  0
   -6.3821    2.2800    1.4503 H   0  0  0  0  0  0  0  0  0  0  0  0
  1  5  1  0
  5  8  1  0
  1  2  1  0
  1  3  1  0
  1  4  1  0
  5  6  1  0
  5  7  1  0
  8  9  1  0
  8 10  1  0
  8 11  1  0
 12 16  1  0
 16 17  1  0
 12 13  1  0
 12 14  1  0
 12 15  1  0
 17 18  1  0
 17 19  1  0
 17 20  1  0
M  CHG  1   8   1
M  END
>  <PDB_ID>  (1715) 
pdb6nvw

>  <RESIDUE_NAME>  (1715) 
LYS   MET

>  <FRAG_NAME>  (1715) 
ETAM   MSM

>  <FRAG_ATOM_NUM>  (1715) 
fragi: 11  fragj: 9

>  <atom.prop.CHAIN_ID>  (1715) 
A A A A A A A A A A A Z Z Z Z Z Z Z Z Z

>  <atom.prop.IS_HEAVY_ATOM>  (1715) 
1 0 0 0 1 0 0 1 0 0 0 1 0 0 0 1 1 0 0 0

>  <DIFUSE_FUNC_ATOM>  (1715) 
n/a

>  <FINAL_SINGLE_POINT_ENERGY>  (1715) 
0

>  <NONCOV_INTER_ENERGY_QM>  (1715) 
0

>  <FF_Energy>  (1715) 
-4.7

>  <QM_Energy>  (1715) 
-11.31

>  <source>  (1715) 
ETAM_MSM

>  <Index>  (1715) 
10965

$$$$
ETAM-pdb6nvy-B-LYS-425:MSM-pdb6nvy-B-MET-434
     RDKit          3D

 20 18  0  0  0  0  0  0  0  0999 V2000
    1.2517    0.8637    0.0000 C   0  0  0  0  0  0  0  0  0  0  0  0
    1.0415    1.7019   -0.4387 H   0  0  0  0  0  0  0  0  0  0  0  0
    1.9431    0.3943   -0.4938 H   0  0  0  0  0  0  0  0  0  0  0  0
    1.6077    1.0661    1.0101 H   0  0  0  0  0  0  0  0  0  0  0  0
    0.0000    0.0000    0.0000 C   0  0  0  0  0  0  0  0  0  0  0  0
   -0.0049   -0.5564   -0.7948 H   0  0  0  0  0  0  0  0  0  0  0  0
   -0.0039   -0.5572    0.7937 H   0  0  0  0  0  0  0  0  0  0  0  0
   -1.2517    0.8212   -0.0000 N   0  0  0  0  0  4  0  0  0  0  0  0
   -1.2766    1.3372    0.7249 H   0  0  0  0  0  0  0  0  0  0  0  0
   -1.2762    1.3383   -0.7231 H   0  0  0  0  0  0  0  0  0  0  0  0
   -1.9648    0.2891    0.0003 H   0  0  0  0  0  0  0  0  0  0  0  0
   -4.8874    0.5918    2.7325 C   0  0  0  0  0  0  0  0  0  0  0  0
   -4.4485    1.4390    2.9111 H   0  0  0  0  0  0  0  0  0  0  0  0
   -5.2054    0.2018    3.5615 H   0  0  0  0  0  0  0  0  0  0  0  0
   -5.7363    0.7634    2.0707 H   0  0  0  0  0  0  0  0  0  0  0  0
   -3.6632   -0.5320    2.0168 S   0  0  0  0  0  0  0  0  0  0  0  0
   -4.4813   -2.1024    2.2638 C   0  0  0  0  0  0  0  0  0  0  0  0
   -3.9230   -2.8098    1.9035 H   0  0  0  0  0  0  0  0  0  0  0  0
   -4.6183   -2.2412    3.2146 H   0  0  0  0  0  0  0  0  0  0  0  0
   -5.3359   -2.0897    1.8048 H   0  0  0  0  0  0  0  0  0  0  0  0
  1  5  1  0
  5  8  1  0
  1  2  1  0
  1  3  1  0
  1  4  1  0
  5  6  1  0
  5  7  1  0
  8  9  1  0
  8 10  1  0
  8 11  1  0
 12 16  1  0
 16 17  1  0
 12 13  1  0
 12 14  1  0
 12 15  1  0
 17 18  1  0
 17 19  1  0
 17 20  1  0
M  CHG  1   8   1
M  END
>  <PDB_ID>  (1716) 
pdb6nvy

>  <RESIDUE_NAME>  (1716) 
LYS   MET

>  <FRAG_NAME>  (1716) 
ETAM   MSM

>  <FRAG_ATOM_NUM>  (1716) 
fragi: 11  fragj: 9

>  <atom.prop.CHAIN_ID>  (1716) 
A A A A A A A A A A A Z Z Z Z Z Z Z Z Z

>  <atom.prop.IS_HEAVY_ATOM>  (1716) 
1 0 0 0 1 0 0 1 0 0 0 1 0 0 0 1 1 0 0 0

>  <DIFUSE_FUNC_ATOM>  (1716) 
n/a

>  <FINAL_SINGLE_POINT_ENERGY>  (1716) 
0

>  <NONCOV_INTER_ENERGY_QM>  (1716) 
0

>  <FF_Energy>  (1716) 
-5.33

>  <QM_Energy>  (1716) 
-13.72

>  <source>  (1716) 
ETAM_MSM

>  <Index>  (1716) 
10967

$$$$
ETAM-pdb6nvy-D-LYS-425:MSM-pdb6nvy-D-MET-434
     RDKit          3D

 20 18  0  0  0  0  0  0  0  0999 V2000
    1.2571    0.8620    0.0000 C   0  0  0  0  0  0  0  0  0  0  0  0
    1.0665    1.6788   -0.4870 H   0  0  0  0  0  0  0  0  0  0  0  0
    1.9650    0.3688   -0.4425 H   0  0  0  0  0  0  0  0  0  0  0  0
    1.5689    1.1107    1.0144 H   0  0  0  0  0  0  0  0  0  0  0  0
    0.0000    0.0000    0.0000 C   0  0  0  0  0  0  0  0  0  0  0  0
   -0.0022   -0.5560   -0.7949 H   0  0  0  0  0  0  0  0  0  0  0  0
   -0.0021   -0.5562    0.7946 H   0  0  0  0  0  0  0  0  0  0  0  0
   -1.2571    0.8111   -0.0000 N   0  0  0  0  0  4  0  0  0  0  0  0
   -1.9664    0.2729    0.0022 H   0  0  0  0  0  0  0  0  0  0  0  0
   -1.2851    1.3293    0.7224 H   0  0  0  0  0  0  0  0  0  0  0  0
   -1.2874    1.3257   -0.7262 H   0  0  0  0  0  0  0  0  0  0  0  0
   -5.3218    1.6894    1.4291 C   0  0  0  0  0  0  0  0  0  0  0  0
   -4.7322    2.4220    1.6661 H   0  0  0  0  0  0  0  0  0  0  0  0
   -5.8361    1.4128    2.2037 H   0  0  0  0  0  0  0  0  0  0  0  0
   -6.0077    2.0260    0.6516 H   0  0  0  0  0  0  0  0  0  0  0  0
   -4.2955    0.2935    0.9142 S   0  0  0  0  0  0  0  0  0  0  0  0
   -5.5065   -1.0279    0.8882 C   0  0  0  0  0  0  0  0  0  0  0  0
   -5.0591   -1.8612    0.6716 H   0  0  0  0  0  0  0  0  0  0  0  0
   -5.9215   -1.0936    1.7620 H   0  0  0  0  0  0  0  0  0  0  0  0
   -6.1773   -0.8281    0.2173 H   0  0  0  0  0  0  0  0  0  0  0  0
  1  5  1  0
  5  8  1  0
  1  2  1  0
  1  3  1  0
  1  4  1  0
  5  6  1  0
  5  7  1  0
  8  9  1  0
  8 10  1  0
  8 11  1  0
 12 16  1  0
 16 17  1  0
 12 13  1  0
 12 14  1  0
 12 15  1  0
 17 18  1  0
 17 19  1  0
 17 20  1  0
M  CHG  1   8   1
M  END
>  <PDB_ID>  (1717) 
pdb6nvy

>  <RESIDUE_NAME>  (1717) 
LYS   MET

>  <FRAG_NAME>  (1717) 
ETAM   MSM

>  <FRAG_ATOM_NUM>  (1717) 
fragi: 11  fragj: 9

>  <atom.prop.CHAIN_ID>  (1717) 
A A A A A A A A A A A Z Z Z Z Z Z Z Z Z

>  <atom.prop.IS_HEAVY_ATOM>  (1717) 
1 0 0 0 1 0 0 1 0 0 0 1 0 0 0 1 1 0 0 0

>  <DIFUSE_FUNC_ATOM>  (1717) 
n/a

>  <FINAL_SINGLE_POINT_ENERGY>  (1717) 
0

>  <NONCOV_INTER_ENERGY_QM>  (1717) 
0

>  <FF_Energy>  (1717) 
-5.07

>  <QM_Energy>  (1717) 
-13.9

>  <source>  (1717) 
ETAM_MSM

>  <Index>  (1717) 
10968

$$$$
ETAM-pdb5kyo-F-LYS-91:MSM-pdb5kyo-F-MET-319
     RDKit          3D

 20 18  0  0  0  0  0  0  0  0999 V2000
    1.2038    0.8873   -0.0000 C   0  0  0  0  0  0  0  0  0  0  0  0
    1.3638    1.2268   -0.9172 H   0  0  0  0  0  0  0  0  0  0  0  0
    1.9872    0.3801    0.3335 H   0  0  0  0  0  0  0  0  0  0  0  0
    1.0391    1.7403    0.6582 H   0  0  0  0  0  0  0  0  0  0  0  0
    0.0000    0.0000    0.0000 C   0  0  0  0  0  0  0  0  0  0  0  0
    0.0005   -0.5630   -0.8161 H   0  0  0  0  0  0  0  0  0  0  0  0
    0.0003   -0.5636    0.8163 H   0  0  0  0  0  0  0  0  0  0  0  0
   -1.2038    0.8606   -0.0000 N   0  0  0  0  0  4  0  0  0  0  0  0
   -1.7937    0.6128   -0.7700 H   0  0  0  0  0  0  0  0  0  0  0  0
   -1.7073    0.7345    0.8566 H   0  0  0  0  0  0  0  0  0  0  0  0
   -0.9307    1.8201   -0.0856 H   0  0  0  0  0  0  0  0  0  0  0  0
    1.2403    3.6543   -3.0172 C   0  0  0  0  0  0  0  0  0  0  0  0
    1.7682    2.7782   -2.8520 H   0  0  0  0  0  0  0  0  0  0  0  0
    1.6487    4.3246   -2.3414 H   0  0  0  0  0  0  0  0  0  0  0  0
    1.4739    4.0039   -4.0229 H   0  0  0  0  0  0  0  0  0  0  0  0
   -0.5232    3.4058   -2.6786 S   0  0  0  0  0  0  0  0  0  0  0  0
   -1.1498    5.0640   -2.9978 C   0  0  0  0  0  0  0  0  0  0  0  0
   -1.3129    5.1732   -3.9779 H   0  0  0  0  0  0  0  0  0  0  0  0
   -2.0057    5.1956   -2.4994 H   0  0  0  0  0  0  0  0  0  0  0  0
   -0.4763    5.7369   -2.6919 H   0  0  0  0  0  0  0  0  0  0  0  0
  1  5  1  0
  5  8  1  0
  1  2  1  0
  1  3  1  0
  1  4  1  0
  5  6  1  0
  5  7  1  0
  8  9  1  0
  8 10  1  0
  8 11  1  0
 12 16  1  0
 16 17  1  0
 12 13  1  0
 12 14  1  0
 12 15  1  0
 17 18  1  0
 17 19  1  0
 17 20  1  0
M  CHG  1   8   1
M  END
>  <PDB_ID>  (1718) 
pdb5kyo

>  <RESIDUE_NAME>  (1718) 
LYS   MET

>  <FRAG_NAME>  (1718) 
ETAM   MSM

>  <FRAG_ATOM_NUM>  (1718) 
fragi: 11  fragj: 9

>  <atom.prop.CHAIN_ID>  (1718) 
A A A A A A A A A A A Z Z Z Z Z Z Z Z Z

>  <atom.prop.IS_HEAVY_ATOM>  (1718) 
1 0 0 0 1 0 0 1 0 0 0 1 0 0 0 1 1 0 0 0

>  <DIFUSE_FUNC_ATOM>  (1718) 
n/a

>  <FINAL_SINGLE_POINT_ENERGY>  (1718) 
0

>  <NONCOV_INTER_ENERGY_QM>  (1718) 
0

>  <FF_Energy>  (1718) 
-5.3

>  <QM_Energy>  (1718) 
-12.07

>  <source>  (1718) 
ETAM_MSM

>  <Index>  (1718) 
10977

$$$$
ETAM-pdb6o0d-A-LYS-269:MSM-pdb6o0d-A-MET-458
     RDKit          3D

 20 18  0  0  0  0  0  0  0  0999 V2000
    1.2464    0.8712    0.0000 C   0  0  0  0  0  0  0  0  0  0  0  0
    1.1388    1.5758    0.6843 H   0  0  0  0  0  0  0  0  0  0  0  0
    1.3615    1.2584   -0.9022 H   0  0  0  0  0  0  0  0  0  0  0  0
    2.1204    0.2673    0.2443 H   0  0  0  0  0  0  0  0  0  0  0  0
    0.0000    0.0000    0.0000 C   0  0  0  0  0  0  0  0  0  0  0  0
    0.0201   -0.5913   -0.8162 H   0  0  0  0  0  0  0  0  0  0  0  0
    0.0199   -0.5913    0.8162 H   0  0  0  0  0  0  0  0  0  0  0  0
   -1.2464    0.7936   -0.0000 N   0  0  0  0  0  4  0  0  0  0  0  0
   -2.0374    0.1791   -0.0057 H   0  0  0  0  0  0  0  0  0  0  0  0
   -1.2798    1.3684    0.8193 H   0  0  0  0  0  0  0  0  0  0  0  0
   -1.2745    1.3763   -0.8145 H   0  0  0  0  0  0  0  0  0  0  0  0
   -0.4555    5.3709   -3.0471 C   0  0  0  0  0  0  0  0  0  0  0  0
    0.2946    5.8750   -3.5150 H   0  0  0  0  0  0  0  0  0  0  0  0
   -1.0185    6.0669   -2.5640 H   0  0  0  0  0  0  0  0  0  0  0  0
   -1.0722    4.8806   -3.8004 H   0  0  0  0  0  0  0  0  0  0  0  0
    0.2080    4.1679   -1.8885 S   0  0  0  0  0  0  0  0  0  0  0  0
   -1.3193    3.5069   -1.2435 C   0  0  0  0  0  0  0  0  0  0  0  0
   -1.8490    3.0918   -1.9859 H   0  0  0  0  0  0  0  0  0  0  0  0
   -1.1216    2.8099   -0.5511 H   0  0  0  0  0  0  0  0  0  0  0  0
   -1.8576    4.2421   -0.8256 H   0  0  0  0  0  0  0  0  0  0  0  0
  1  5  1  0
  5  8  1  0
  1  2  1  0
  1  3  1  0
  1  4  1  0
  5  6  1  0
  5  7  1  0
  8  9  1  0
  8 10  1  0
  8 11  1  0
 12 16  1  0
 16 17  1  0
 12 13  1  0
 12 14  1  0
 12 15  1  0
 17 18  1  0
 17 19  1  0
 17 20  1  0
M  CHG  1   8   1
M  END
>  <PDB_ID>  (1719) 
pdb6o0d

>  <RESIDUE_NAME>  (1719) 
LYS   MET

>  <FRAG_NAME>  (1719) 
ETAM   MSM

>  <FRAG_ATOM_NUM>  (1719) 
fragi: 11  fragj: 9

>  <atom.prop.CHAIN_ID>  (1719) 
A A A A A A A A A A A Z Z Z Z Z Z Z Z Z

>  <atom.prop.IS_HEAVY_ATOM>  (1719) 
1 0 0 0 1 0 0 1 0 0 0 1 0 0 0 1 1 0 0 0

>  <DIFUSE_FUNC_ATOM>  (1719) 
n/a

>  <FINAL_SINGLE_POINT_ENERGY>  (1719) 
0

>  <NONCOV_INTER_ENERGY_QM>  (1719) 
0

>  <FF_Energy>  (1719) 
10.57

>  <QM_Energy>  (1719) 
3.96

>  <source>  (1719) 
ETAM_MSM

>  <Index>  (1719) 
10978

$$$$
ETAM-pdb5ksw-C-LYS-170:MSM-pdb5ksw-C-MET-247
     RDKit          3D

 20 18  0  0  0  0  0  0  0  0999 V2000
    1.2257    0.8536   -0.0000 C   0  0  0  0  0  0  0  0  0  0  0  0
    1.1862    1.4767    0.7795 H   0  0  0  0  0  0  0  0  0  0  0  0
    1.2547    1.3778   -0.8495 H   0  0  0  0  0  0  0  0  0  0  0  0
    2.1272    0.2456    0.0755 H   0  0  0  0  0  0  0  0  0  0  0  0
    0.0000    0.0000    0.0000 C   0  0  0  0  0  0  0  0  0  0  0  0
   -0.0222   -0.5673   -0.8164 H   0  0  0  0  0  0  0  0  0  0  0  0
   -0.0225   -0.5680    0.8163 H   0  0  0  0  0  0  0  0  0  0  0  0
   -1.2257    0.8814    0.0000 N   0  0  0  0  0  4  0  0  0  0  0  0
   -1.7650    0.6807    0.8130 H   0  0  0  0  0  0  0  0  0  0  0  0
   -0.9359    1.8343    0.0079 H   0  0  0  0  0  0  0  0  0  0  0  0
   -1.7578    0.6912   -0.8208 H   0  0  0  0  0  0  0  0  0  0  0  0
   -2.1862   -3.0621    3.3948 C   0  0  0  0  0  0  0  0  0  0  0  0
   -1.2526   -3.4474    3.5314 H   0  0  0  0  0  0  0  0  0  0  0  0
   -2.6080   -3.5907    2.6321 H   0  0  0  0  0  0  0  0  0  0  0  0
   -2.7672   -3.2390    4.2999 H   0  0  0  0  0  0  0  0  0  0  0  0
   -2.1098   -1.3098    3.0005 S   0  0  0  0  0  0  0  0  0  0  0  0
   -0.7541   -0.7821    4.0191 C   0  0  0  0  0  0  0  0  0  0  0  0
    0.0891   -1.2453    3.7347 H   0  0  0  0  0  0  0  0  0  0  0  0
   -0.6257    0.2093    3.9329 H   0  0  0  0  0  0  0  0  0  0  0  0
   -0.9393   -1.0041    4.9804 H   0  0  0  0  0  0  0  0  0  0  0  0
  1  5  1  0
  5  8  1  0
  1  2  1  0
  1  3  1  0
  1  4  1  0
  5  6  1  0
  5  7  1  0
  8  9  1  0
  8 10  1  0
  8 11  1  0
 12 16  1  0
 16 17  1  0
 12 13  1  0
 12 14  1  0
 12 15  1  0
 17 18  1  0
 17 19  1  0
 17 20  1  0
M  CHG  1   8   1
M  END
>  <PDB_ID>  (1720) 
pdb5ksw

>  <RESIDUE_NAME>  (1720) 
LYS   MET

>  <FRAG_NAME>  (1720) 
ETAM   MSM

>  <FRAG_ATOM_NUM>  (1720) 
fragi: 11  fragj: 9

>  <atom.prop.CHAIN_ID>  (1720) 
A A A A A A A A A A A Z Z Z Z Z Z Z Z Z

>  <atom.prop.IS_HEAVY_ATOM>  (1720) 
1 0 0 0 1 0 0 1 0 0 0 1 0 0 0 1 1 0 0 0

>  <DIFUSE_FUNC_ATOM>  (1720) 
n/a

>  <FINAL_SINGLE_POINT_ENERGY>  (1720) 
0

>  <NONCOV_INTER_ENERGY_QM>  (1720) 
0

>  <FF_Energy>  (1720) 
-4.93

>  <QM_Energy>  (1720) 
-11.14

>  <source>  (1720) 
ETAM_MSM

>  <Index>  (1720) 
10983

$$$$
ETAM-pdb5l71-A-LYS-48:MSM-pdb5l71-A-MET-156
     RDKit          3D

 20 18  0  0  0  0  0  0  0  0999 V2000
    1.2868    0.8702   -0.0000 C   0  0  0  0  0  0  0  0  0  0  0  0
    1.3420    1.3661   -0.8292 H   0  0  0  0  0  0  0  0  0  0  0  0
    2.0528    0.3140    0.1988 H   0  0  0  0  0  0  0  0  0  0  0  0
    1.2009    1.6001    0.8050 H   0  0  0  0  0  0  0  0  0  0  0  0
    0.0000    0.0000    0.0000 C   0  0  0  0  0  0  0  0  0  0  0  0
    0.0474   -0.6146   -0.8164 H   0  0  0  0  0  0  0  0  0  0  0  0
    0.0468   -0.6147    0.8162 H   0  0  0  0  0  0  0  0  0  0  0  0
   -1.2868    0.7198   -0.0000 N   0  0  0  0  0  4  0  0  0  0  0  0
   -1.1421    1.6721    0.2739 H   0  0  0  0  0  0  0  0  0  0  0  0
   -1.6871    0.6987   -0.9185 H   0  0  0  0  0  0  0  0  0  0  0  0
   -1.9183    0.2846    0.6444 H   0  0  0  0  0  0  0  0  0  0  0  0
   -1.2231   -3.1457    2.7219 C   0  0  0  0  0  0  0  0  0  0  0  0
   -0.8518   -3.4517    1.8065 H   0  0  0  0  0  0  0  0  0  0  0  0
   -2.1237   -3.6452    2.8117 H   0  0  0  0  0  0  0  0  0  0  0  0
   -0.5560   -3.5361    3.4904 H   0  0  0  0  0  0  0  0  0  0  0  0
   -1.4494   -1.3793    2.7768 S   0  0  0  0  0  0  0  0  0  0  0  0
   -2.0162   -1.1765    4.4030 C   0  0  0  0  0  0  0  0  0  0  0  0
   -1.8635   -2.0130    4.9493 H   0  0  0  0  0  0  0  0  0  0  0  0
   -1.5362   -0.4154    4.8643 H   0  0  0  0  0  0  0  0  0  0  0  0
   -3.0065   -0.9733    4.4214 H   0  0  0  0  0  0  0  0  0  0  0  0
  1  5  1  0
  5  8  1  0
  1  2  1  0
  1  3  1  0
  1  4  1  0
  5  6  1  0
  5  7  1  0
  8  9  1  0
  8 10  1  0
  8 11  1  0
 12 16  1  0
 16 17  1  0
 12 13  1  0
 12 14  1  0
 12 15  1  0
 17 18  1  0
 17 19  1  0
 17 20  1  0
M  CHG  1   8   1
M  END
>  <PDB_ID>  (1721) 
pdb5l71

>  <RESIDUE_NAME>  (1721) 
LYS   MET

>  <FRAG_NAME>  (1721) 
ETAM   MSM

>  <FRAG_ATOM_NUM>  (1721) 
fragi: 11  fragj: 9

>  <atom.prop.CHAIN_ID>  (1721) 
A A A A A A A A A A A Z Z Z Z Z Z Z Z Z

>  <atom.prop.IS_HEAVY_ATOM>  (1721) 
1 0 0 0 1 0 0 1 0 0 0 1 0 0 0 1 1 0 0 0

>  <DIFUSE_FUNC_ATOM>  (1721) 
n/a

>  <FINAL_SINGLE_POINT_ENERGY>  (1721) 
0

>  <NONCOV_INTER_ENERGY_QM>  (1721) 
0

>  <FF_Energy>  (1721) 
-4.14

>  <QM_Energy>  (1721) 
-13.52

>  <source>  (1721) 
ETAM_MSM

>  <Index>  (1721) 
10992

$$$$
ETAM-pdb5l02-A-LYS-422:MSM-pdb5l02-A-MET-266
     RDKit          3D

 20 18  0  0  0  0  0  0  0  0999 V2000
    1.2373    0.8801   -0.0000 C   0  0  0  0  0  0  0  0  0  0  0  0
    1.3299    1.3025    0.8948 H   0  0  0  0  0  0  0  0  0  0  0  0
    1.1355    1.5746   -0.7033 H   0  0  0  0  0  0  0  0  0  0  0  0
    2.1372    0.3010   -0.2072 H   0  0  0  0  0  0  0  0  0  0  0  0
    0.0000    0.0000    0.0000 C   0  0  0  0  0  0  0  0  0  0  0  0
   -0.0105   -0.5597   -0.8161 H   0  0  0  0  0  0  0  0  0  0  0  0
   -0.0111   -0.5598    0.8167 H   0  0  0  0  0  0  0  0  0  0  0  0
   -1.2373    0.8787    0.0000 N   0  0  0  0  0  4  0  0  0  0  0  0
   -1.2162    1.4555   -0.8106 H   0  0  0  0  0  0  0  0  0  0  0  0
   -2.0418    0.2936   -0.0127 H   0  0  0  0  0  0  0  0  0  0  0  0
   -1.2284    1.4377    0.8232 H   0  0  0  0  0  0  0  0  0  0  0  0
   -0.3817    1.7339   -5.2629 C   0  0  0  0  0  0  0  0  0  0  0  0
   -0.5095    0.7580   -5.3252 H   0  0  0  0  0  0  0  0  0  0  0  0
    0.1877    2.0746   -5.9931 H   0  0  0  0  0  0  0  0  0  0  0  0
   -1.3430    2.2475   -5.2518 H   0  0  0  0  0  0  0  0  0  0  0  0
    0.4824    2.1221   -3.5979 S   0  0  0  0  0  0  0  0  0  0  0  0
    2.0280    1.2698   -3.9324 C   0  0  0  0  0  0  0  0  0  0  0  0
    1.9607    0.3226   -3.6191 H   0  0  0  0  0  0  0  0  0  0  0  0
    2.2100    1.2840   -4.9157 H   0  0  0  0  0  0  0  0  0  0  0  0
    2.7732    1.7294   -3.4489 H   0  0  0  0  0  0  0  0  0  0  0  0
  1  5  1  0
  5  8  1  0
  1  2  1  0
  1  3  1  0
  1  4  1  0
  5  6  1  0
  5  7  1  0
  8  9  1  0
  8 10  1  0
  8 11  1  0
 12 16  1  0
 16 17  1  0
 12 13  1  0
 12 14  1  0
 12 15  1  0
 17 18  1  0
 17 19  1  0
 17 20  1  0
M  CHG  1   8   1
M  END
>  <PDB_ID>  (1722) 
pdb5l02

>  <RESIDUE_NAME>  (1722) 
LYS   MET

>  <FRAG_NAME>  (1722) 
ETAM   MSM

>  <FRAG_ATOM_NUM>  (1722) 
fragi: 11  fragj: 9

>  <atom.prop.CHAIN_ID>  (1722) 
A A A A A A A A A A A Z Z Z Z Z Z Z Z Z

>  <atom.prop.IS_HEAVY_ATOM>  (1722) 
1 0 0 0 1 0 0 1 0 0 0 1 0 0 0 1 1 0 0 0

>  <DIFUSE_FUNC_ATOM>  (1722) 
n/a

>  <FINAL_SINGLE_POINT_ENERGY>  (1722) 
0

>  <NONCOV_INTER_ENERGY_QM>  (1722) 
0

>  <FF_Energy>  (1722) 
-4.4

>  <QM_Energy>  (1722) 
-10.48

>  <source>  (1722) 
ETAM_MSM

>  <Index>  (1722) 
10995

$$$$
ETAM-pdb6oad-A-LYS-207:MSM-pdb6oad-A-MET-215
     RDKit          3D

 20 18  0  0  0  0  0  0  0  0999 V2000
    1.2360    0.8739   -0.0000 C   0  0  0  0  0  0  0  0  0  0  0  0
    2.0383    0.3011    0.1958 H   0  0  0  0  0  0  0  0  0  0  0  0
    1.1474    1.5617    0.7275 H   0  0  0  0  0  0  0  0  0  0  0  0
    1.4147    1.3962   -0.9399 H   0  0  0  0  0  0  0  0  0  0  0  0
    0.0000    0.0000    0.0000 C   0  0  0  0  0  0  0  0  0  0  0  0
    0.0151   -0.5847   -0.8162 H   0  0  0  0  0  0  0  0  0  0  0  0
    0.0144   -0.5848    0.8167 H   0  0  0  0  0  0  0  0  0  0  0  0
   -1.2360    0.8086   -0.0000 N   0  0  0  0  0  4  0  0  0  0  0  0
   -2.0081    0.2450   -0.2992 H   0  0  0  0  0  0  0  0  0  0  0  0
   -1.4154    1.1506    0.9239 H   0  0  0  0  0  0  0  0  0  0  0  0
   -1.1318    1.5842   -0.6246 H   0  0  0  0  0  0  0  0  0  0  0  0
    1.1942   -1.1664    3.1046 C   0  0  0  0  0  0  0  0  0  0  0  0
    1.6116   -0.3263    3.5143 H   0  0  0  0  0  0  0  0  0  0  0  0
    1.3559   -1.0938    2.0963 H   0  0  0  0  0  0  0  0  0  0  0  0
    1.7060   -2.0482    3.4900 H   0  0  0  0  0  0  0  0  0  0  0  0
   -0.6132   -1.1873    3.4425 S   0  0  0  0  0  0  0  0  0  0  0  0
   -0.7168   -0.1162    4.8787 C   0  0  0  0  0  0  0  0  0  0  0  0
   -0.9947    0.8014    4.5919 H   0  0  0  0  0  0  0  0  0  0  0  0
   -1.3911   -0.4827    5.5213 H   0  0  0  0  0  0  0  0  0  0  0  0
    0.1772   -0.0682    5.3247 H   0  0  0  0  0  0  0  0  0  0  0  0
  1  5  1  0
  5  8  1  0
  1  2  1  0
  1  3  1  0
  1  4  1  0
  5  6  1  0
  5  7  1  0
  8  9  1  0
  8 10  1  0
  8 11  1  0
 12 16  1  0
 16 17  1  0
 12 13  1  0
 12 14  1  0
 12 15  1  0
 17 18  1  0
 17 19  1  0
 17 20  1  0
M  CHG  1   8   1
M  END
>  <PDB_ID>  (1723) 
pdb6oad

>  <RESIDUE_NAME>  (1723) 
LYS   MET

>  <FRAG_NAME>  (1723) 
ETAM   MSM

>  <FRAG_ATOM_NUM>  (1723) 
fragi: 11  fragj: 9

>  <atom.prop.CHAIN_ID>  (1723) 
A A A A A A A A A A A Z Z Z Z Z Z Z Z Z

>  <atom.prop.IS_HEAVY_ATOM>  (1723) 
1 0 0 0 1 0 0 1 0 0 0 1 0 0 0 1 1 0 0 0

>  <DIFUSE_FUNC_ATOM>  (1723) 
n/a

>  <FINAL_SINGLE_POINT_ENERGY>  (1723) 
0

>  <NONCOV_INTER_ENERGY_QM>  (1723) 
0

>  <FF_Energy>  (1723) 
-1.22

>  <QM_Energy>  (1723) 
-8.06

>  <source>  (1723) 
ETAM_MSM

>  <Index>  (1723) 
11004

$$$$
ETAM-pdb6oad-C-LYS-207:MSM-pdb6oad-C-MET-215
     RDKit          3D

 20 18  0  0  0  0  0  0  0  0999 V2000
    1.2380    0.8683    0.0000 C   0  0  0  0  0  0  0  0  0  0  0  0
    2.0445    0.2737    0.0904 H   0  0  0  0  0  0  0  0  0  0  0  0
    1.1997    1.4778    0.7989 H   0  0  0  0  0  0  0  0  0  0  0  0
    1.3491    1.4742   -0.8993 H   0  0  0  0  0  0  0  0  0  0  0  0
    0.0000    0.0000    0.0000 C   0  0  0  0  0  0  0  0  0  0  0  0
    0.0122   -0.5864   -0.8163 H   0  0  0  0  0  0  0  0  0  0  0  0
    0.0116   -0.5866    0.8163 H   0  0  0  0  0  0  0  0  0  0  0  0
   -1.2380    0.8108   -0.0000 N   0  0  0  0  0  4  0  0  0  0  0  0
   -1.1767    1.5164    0.7071 H   0  0  0  0  0  0  0  0  0  0  0  0
   -1.3545    1.2454   -0.8939 H   0  0  0  0  0  0  0  0  0  0  0  0
   -2.0251    0.2210    0.1872 H   0  0  0  0  0  0  0  0  0  0  0  0
    1.4526   -1.2948    3.0358 C   0  0  0  0  0  0  0  0  0  0  0  0
    1.8731   -0.4852    3.5059 H   0  0  0  0  0  0  0  0  0  0  0  0
    1.5922   -1.1305    2.0328 H   0  0  0  0  0  0  0  0  0  0  0  0
    2.0148   -2.1847    3.3188 H   0  0  0  0  0  0  0  0  0  0  0  0
   -0.3363   -1.3947    3.4206 S   0  0  0  0  0  0  0  0  0  0  0  0
   -0.4012   -0.7763    5.1031 C   0  0  0  0  0  0  0  0  0  0  0  0
   -1.2742   -0.3119    5.2556 H   0  0  0  0  0  0  0  0  0  0  0  0
   -0.3137   -1.5402    5.7435 H   0  0  0  0  0  0  0  0  0  0  0  0
    0.3484   -0.1306    5.2513 H   0  0  0  0  0  0  0  0  0  0  0  0
  1  5  1  0
  5  8  1  0
  1  2  1  0
  1  3  1  0
  1  4  1  0
  5  6  1  0
  5  7  1  0
  8  9  1  0
  8 10  1  0
  8 11  1  0
 12 16  1  0
 16 17  1  0
 12 13  1  0
 12 14  1  0
 12 15  1  0
 17 18  1  0
 17 19  1  0
 17 20  1  0
M  CHG  1   8   1
M  END
>  <PDB_ID>  (1724) 
pdb6oad

>  <RESIDUE_NAME>  (1724) 
LYS   MET

>  <FRAG_NAME>  (1724) 
ETAM   MSM

>  <FRAG_ATOM_NUM>  (1724) 
fragi: 11  fragj: 9

>  <atom.prop.CHAIN_ID>  (1724) 
A A A A A A A A A A A Z Z Z Z Z Z Z Z Z

>  <atom.prop.IS_HEAVY_ATOM>  (1724) 
1 0 0 0 1 0 0 1 0 0 0 1 0 0 0 1 1 0 0 0

>  <DIFUSE_FUNC_ATOM>  (1724) 
n/a

>  <FINAL_SINGLE_POINT_ENERGY>  (1724) 
0

>  <NONCOV_INTER_ENERGY_QM>  (1724) 
0

>  <FF_Energy>  (1724) 
-2.37

>  <QM_Energy>  (1724) 
-7.87

>  <source>  (1724) 
ETAM_MSM

>  <Index>  (1724) 
11006

$$$$
ETAM-pdb6oad-E-LYS-207:MSM-pdb6oad-E-MET-215
     RDKit          3D

 20 18  0  0  0  0  0  0  0  0999 V2000
    1.2405    0.8671   -0.0000 C   0  0  0  0  0  0  0  0  0  0  0  0
    2.0355    0.2870    0.2261 H   0  0  0  0  0  0  0  0  0  0  0  0
    1.1440    1.5606    0.7274 H   0  0  0  0  0  0  0  0  0  0  0  0
    1.4398    1.3766   -0.9428 H   0  0  0  0  0  0  0  0  0  0  0  0
    0.0000    0.0000    0.0000 C   0  0  0  0  0  0  0  0  0  0  0  0
    0.0154   -0.5902   -0.8162 H   0  0  0  0  0  0  0  0  0  0  0  0
    0.0149   -0.5899    0.8159 H   0  0  0  0  0  0  0  0  0  0  0  0
   -1.2405    0.8015    0.0000 N   0  0  0  0  0  4  0  0  0  0  0  0
   -1.1657    1.5384    0.6740 H   0  0  0  0  0  0  0  0  0  0  0  0
   -1.3860    1.1977   -0.9085 H   0  0  0  0  0  0  0  0  0  0  0  0
   -2.0197    0.2177    0.2345 H   0  0  0  0  0  0  0  0  0  0  0  0
    0.9371   -0.9101    3.3368 C   0  0  0  0  0  0  0  0  0  0  0  0
    1.3095   -0.0533    3.7477 H   0  0  0  0  0  0  0  0  0  0  0  0
    1.1487   -0.8630    2.3388 H   0  0  0  0  0  0  0  0  0  0  0  0
    1.4656   -1.7610    3.7665 H   0  0  0  0  0  0  0  0  0  0  0  0
   -0.8820   -0.9959    3.5936 S   0  0  0  0  0  0  0  0  0  0  0  0
   -1.1174   -0.0223    5.0830 C   0  0  0  0  0  0  0  0  0  0  0  0
   -0.4754   -0.3286    5.7869 H   0  0  0  0  0  0  0  0  0  0  0  0
   -0.9535    0.9441    4.8798 H   0  0  0  0  0  0  0  0  0  0  0  0
   -2.0545   -0.1388    5.4139 H   0  0  0  0  0  0  0  0  0  0  0  0
  1  5  1  0
  5  8  1  0
  1  2  1  0
  1  3  1  0
  1  4  1  0
  5  6  1  0
  5  7  1  0
  8  9  1  0
  8 10  1  0
  8 11  1  0
 12 16  1  0
 16 17  1  0
 12 13  1  0
 12 14  1  0
 12 15  1  0
 17 18  1  0
 17 19  1  0
 17 20  1  0
M  CHG  1   8   1
M  END
>  <PDB_ID>  (1725) 
pdb6oad

>  <RESIDUE_NAME>  (1725) 
LYS   MET

>  <FRAG_NAME>  (1725) 
ETAM   MSM

>  <FRAG_ATOM_NUM>  (1725) 
fragi: 11  fragj: 9

>  <atom.prop.CHAIN_ID>  (1725) 
A A A A A A A A A A A Z Z Z Z Z Z Z Z Z

>  <atom.prop.IS_HEAVY_ATOM>  (1725) 
1 0 0 0 1 0 0 1 0 0 0 1 0 0 0 1 1 0 0 0

>  <DIFUSE_FUNC_ATOM>  (1725) 
n/a

>  <FINAL_SINGLE_POINT_ENERGY>  (1725) 
0

>  <NONCOV_INTER_ENERGY_QM>  (1725) 
0

>  <FF_Energy>  (1725) 
-1.82

>  <QM_Energy>  (1725) 
-7.86

>  <source>  (1725) 
ETAM_MSM

>  <Index>  (1725) 
11008

$$$$
ETAM-pdb6omk-A-LYS-144:MSM-pdb6omk-A-MET-141
     RDKit          3D

 20 18  0  0  0  0  0  0  0  0999 V2000
    1.2325    0.8731   -0.0000 C   0  0  0  0  0  0  0  0  0  0  0  0
    1.2147    1.4534    0.8157 H   0  0  0  0  0  0  0  0  0  0  0  0
    1.2143    1.4538   -0.8168 H   0  0  0  0  0  0  0  0  0  0  0  0
    2.1581    0.2974    0.0005 H   0  0  0  0  0  0  0  0  0  0  0  0
    0.0000    0.0000    0.0000 C   0  0  0  0  0  0  0  0  0  0  0  0
    0.0079   -0.5789   -0.8157 H   0  0  0  0  0  0  0  0  0  0  0  0
    0.0073   -0.5794    0.8165 H   0  0  0  0  0  0  0  0  0  0  0  0
   -1.2325    0.8277   -0.0000 N   0  0  0  0  0  4  0  0  0  0  0  0
   -1.8525    0.5015    0.7142 H   0  0  0  0  0  0  0  0  0  0  0  0
   -0.9928    1.7821    0.1776 H   0  0  0  0  0  0  0  0  0  0  0  0
   -1.6820    0.7562   -0.8903 H   0  0  0  0  0  0  0  0  0  0  0  0
   -2.6596   -3.1293    2.0686 C   0  0  0  0  0  0  0  0  0  0  0  0
   -2.8058   -3.4794    1.1297 H   0  0  0  0  0  0  0  0  0  0  0  0
   -3.4272   -3.4632    2.6387 H   0  0  0  0  0  0  0  0  0  0  0  0
   -1.7244   -3.5325    2.4571 H   0  0  0  0  0  0  0  0  0  0  0  0
   -2.5802   -1.3467    2.0827 S   0  0  0  0  0  0  0  0  0  0  0  0
   -3.7280   -0.9419    3.3796 C   0  0  0  0  0  0  0  0  0  0  0  0
   -3.6141   -1.5774    4.1480 H   0  0  0  0  0  0  0  0  0  0  0  0
   -3.5632   -0.0068    3.7022 H   0  0  0  0  0  0  0  0  0  0  0  0
   -4.6681   -1.0089    3.0366 H   0  0  0  0  0  0  0  0  0  0  0  0
  1  5  1  0
  5  8  1  0
  1  2  1  0
  1  3  1  0
  1  4  1  0
  5  6  1  0
  5  7  1  0
  8  9  1  0
  8 10  1  0
  8 11  1  0
 12 16  1  0
 16 17  1  0
 12 13  1  0
 12 14  1  0
 12 15  1  0
 17 18  1  0
 17 19  1  0
 17 20  1  0
M  CHG  1   8   1
M  END
>  <PDB_ID>  (1726) 
pdb6omk

>  <RESIDUE_NAME>  (1726) 
LYS   MET

>  <FRAG_NAME>  (1726) 
ETAM   MSM

>  <FRAG_ATOM_NUM>  (1726) 
fragi: 11  fragj: 9

>  <atom.prop.CHAIN_ID>  (1726) 
A A A A A A A A A A A Z Z Z Z Z Z Z Z Z

>  <atom.prop.IS_HEAVY_ATOM>  (1726) 
1 0 0 0 1 0 0 1 0 0 0 1 0 0 0 1 1 0 0 0

>  <DIFUSE_FUNC_ATOM>  (1726) 
n/a

>  <FINAL_SINGLE_POINT_ENERGY>  (1726) 
0

>  <NONCOV_INTER_ENERGY_QM>  (1726) 
0

>  <FF_Energy>  (1726) 
-5.73

>  <QM_Energy>  (1726) 
-15.47

>  <source>  (1726) 
ETAM_MSM

>  <Index>  (1726) 
11037

$$$$
ETAM-pdb6oh9-A-LYS-411:MSM-pdb6oh9-A-MET-392
     RDKit          3D

 20 18  0  0  0  0  0  0  0  0999 V2000
    1.2097    0.8865   -0.0000 C   0  0  0  0  0  0  0  0  0  0  0  0
    1.2095    1.3898    0.8293 H   0  0  0  0  0  0  0  0  0  0  0  0
    1.1342    1.4924   -0.7551 H   0  0  0  0  0  0  0  0  0  0  0  0
    2.1484    0.3383   -0.0805 H   0  0  0  0  0  0  0  0  0  0  0  0
    0.0000    0.0000    0.0000 C   0  0  0  0  0  0  0  0  0  0  0  0
   -0.0067   -0.5574   -0.7939 H   0  0  0  0  0  0  0  0  0  0  0  0
   -0.0073   -0.5564    0.7949 H   0  0  0  0  0  0  0  0  0  0  0  0
   -1.2097    0.8744    0.0000 N   0  0  0  0  0  4  0  0  0  0  0  0
   -1.2111    1.3923    0.7233 H   0  0  0  0  0  0  0  0  0  0  0  0
   -1.2126    1.3903   -0.7257 H   0  0  0  0  0  0  0  0  0  0  0  0
   -1.9461    0.3742    0.0017 H   0  0  0  0  0  0  0  0  0  0  0  0
   -4.9382    3.9044    0.4041 C   0  0  0  0  0  0  0  0  0  0  0  0
   -4.2852    4.6190    0.3425 H   0  0  0  0  0  0  0  0  0  0  0  0
   -5.1328    3.7134    1.3347 H   0  0  0  0  0  0  0  0  0  0  0  0
   -5.8412    4.1249   -0.1651 H   0  0  0  0  0  0  0  0  0  0  0  0
   -4.3926    2.4646   -0.4440 S   0  0  0  0  0  0  0  0  0  0  0  0
   -5.4115    1.1495   -0.2476 C   0  0  0  0  0  0  0  0  0  0  0  0
   -5.2124    0.4911   -0.9315 H   0  0  0  0  0  0  0  0  0  0  0  0
   -5.2683    0.7678    0.6324 H   0  0  0  0  0  0  0  0  0  0  0  0
   -6.3306    1.4474   -0.3329 H   0  0  0  0  0  0  0  0  0  0  0  0
  1  5  1  0
  5  8  1  0
  1  2  1  0
  1  3  1  0
  1  4  1  0
  5  6  1  0
  5  7  1  0
  8  9  1  0
  8 10  1  0
  8 11  1  0
 12 16  1  0
 16 17  1  0
 12 13  1  0
 12 14  1  0
 12 15  1  0
 17 18  1  0
 17 19  1  0
 17 20  1  0
M  CHG  1   8   1
M  END
>  <PDB_ID>  (1727) 
pdb6oh9

>  <RESIDUE_NAME>  (1727) 
LYS   MET

>  <FRAG_NAME>  (1727) 
ETAM   MSM

>  <FRAG_ATOM_NUM>  (1727) 
fragi: 11  fragj: 9

>  <atom.prop.CHAIN_ID>  (1727) 
A A A A A A A A A A A Z Z Z Z Z Z Z Z Z

>  <atom.prop.IS_HEAVY_ATOM>  (1727) 
1 0 0 0 1 0 0 1 0 0 0 1 0 0 0 1 1 0 0 0

>  <DIFUSE_FUNC_ATOM>  (1727) 
n/a

>  <FINAL_SINGLE_POINT_ENERGY>  (1727) 
0

>  <NONCOV_INTER_ENERGY_QM>  (1727) 
0

>  <FF_Energy>  (1727) 
-4.36

>  <QM_Energy>  (1727) 
-12.76

>  <source>  (1727) 
ETAM_MSM

>  <Index>  (1727) 
11042

$$$$
ETAM-pdb5lb7-B-LYS-67:MSM-pdb5lb7-B-MET-26
     RDKit          3D

 20 18  0  0  0  0  0  0  0  0999 V2000
    1.2453    0.8690   -0.0000 C   0  0  0  0  0  0  0  0  0  0  0  0
    1.1742    1.5274    0.7438 H   0  0  0  0  0  0  0  0  0  0  0  0
    1.3024    1.3425   -0.8745 H   0  0  0  0  0  0  0  0  0  0  0  0
    2.1493    0.2762    0.1402 H   0  0  0  0  0  0  0  0  0  0  0  0
    0.0000    0.0000    0.0000 C   0  0  0  0  0  0  0  0  0  0  0  0
    0.0113   -0.5846   -0.8161 H   0  0  0  0  0  0  0  0  0  0  0  0
    0.0107   -0.5852    0.8160 H   0  0  0  0  0  0  0  0  0  0  0  0
   -1.2453    0.8130   -0.0000 N   0  0  0  0  0  4  0  0  0  0  0  0
   -1.0551    1.7116   -0.3952 H   0  0  0  0  0  0  0  0  0  0  0  0
   -1.9442    0.3493   -0.5442 H   0  0  0  0  0  0  0  0  0  0  0  0
   -1.5705    0.9218    0.9386 H   0  0  0  0  0  0  0  0  0  0  0  0
    3.0749   -4.4801    0.1494 C   0  0  0  0  0  0  0  0  0  0  0  0
    3.9834   -4.9027    0.3601 H   0  0  0  0  0  0  0  0  0  0  0  0
    3.2127   -3.9368   -0.7076 H   0  0  0  0  0  0  0  0  0  0  0  0
    2.3555   -5.2747   -0.0483 H   0  0  0  0  0  0  0  0  0  0  0  0
    2.5472   -3.4050    1.5024 S   0  0  0  0  0  0  0  0  0  0  0  0
    0.9077   -2.9478    0.9539 C   0  0  0  0  0  0  0  0  0  0  0  0
    0.8477   -1.9522    0.8623 H   0  0  0  0  0  0  0  0  0  0  0  0
    0.7180   -3.3730    0.0673 H   0  0  0  0  0  0  0  0  0  0  0  0
    0.2297   -3.2593    1.6223 H   0  0  0  0  0  0  0  0  0  0  0  0
  1  5  1  0
  5  8  1  0
  1  2  1  0
  1  3  1  0
  1  4  1  0
  5  6  1  0
  5  7  1  0
  8  9  1  0
  8 10  1  0
  8 11  1  0
 12 16  1  0
 16 17  1  0
 12 13  1  0
 12 14  1  0
 12 15  1  0
 17 18  1  0
 17 19  1  0
 17 20  1  0
M  CHG  1   8   1
M  END
>  <PDB_ID>  (1728) 
pdb5lb7

>  <RESIDUE_NAME>  (1728) 
LYS   MET

>  <FRAG_NAME>  (1728) 
ETAM   MSM

>  <FRAG_ATOM_NUM>  (1728) 
fragi: 11  fragj: 9

>  <atom.prop.CHAIN_ID>  (1728) 
A A A A A A A A A A A Z Z Z Z Z Z Z Z Z

>  <atom.prop.IS_HEAVY_ATOM>  (1728) 
1 0 0 0 1 0 0 1 0 0 0 1 0 0 0 1 1 0 0 0

>  <DIFUSE_FUNC_ATOM>  (1728) 
n/a

>  <FINAL_SINGLE_POINT_ENERGY>  (1728) 
0

>  <NONCOV_INTER_ENERGY_QM>  (1728) 
0

>  <FF_Energy>  (1728) 
16.63

>  <QM_Energy>  (1728) 
3.24

>  <source>  (1728) 
ETAM_MSM

>  <Index>  (1728) 
11043

$$$$
ETAM-pdb6ona-A-LYS-307:MSM-pdb6ona-A-MET-388
     RDKit          3D

 20 18  0  0  0  0  0  0  0  0999 V2000
    1.2541    0.8563    0.0000 C   0  0  0  0  0  0  0  0  0  0  0  0
    2.0362    0.2808    0.2221 H   0  0  0  0  0  0  0  0  0  0  0  0
    1.1524    1.5755    0.6823 H   0  0  0  0  0  0  0  0  0  0  0  0
    1.4337    1.3224   -0.9688 H   0  0  0  0  0  0  0  0  0  0  0  0
    0.0000    0.0000    0.0000 C   0  0  0  0  0  0  0  0  0  0  0  0
    0.0076   -0.5907   -0.8163 H   0  0  0  0  0  0  0  0  0  0  0  0
    0.0077   -0.5906    0.8163 H   0  0  0  0  0  0  0  0  0  0  0  0
   -1.2541    0.8086   -0.0000 N   0  0  0  0  0  4  0  0  0  0  0  0
   -1.6043    0.8733   -0.9326 H   0  0  0  0  0  0  0  0  0  0  0  0
   -1.9330    0.3648    0.5844 H   0  0  0  0  0  0  0  0  0  0  0  0
   -1.0562    1.7233    0.3492 H   0  0  0  0  0  0  0  0  0  0  0  0
   -2.7706    2.5263   -3.6181 C   0  0  0  0  0  0  0  0  0  0  0  0
   -2.2230    3.3924   -3.5687 H   0  0  0  0  0  0  0  0  0  0  0  0
   -3.4253    2.5716   -2.8288 H   0  0  0  0  0  0  0  0  0  0  0  0
   -3.3568    2.5590   -4.5364 H   0  0  0  0  0  0  0  0  0  0  0  0
   -1.7000    1.0717   -3.4908 S   0  0  0  0  0  0  0  0  0  0  0  0
   -0.4087    1.5064   -4.6572 C   0  0  0  0  0  0  0  0  0  0  0  0
    0.4627    1.5972   -4.1729 H   0  0  0  0  0  0  0  0  0  0  0  0
   -0.3308    0.7903   -5.3515 H   0  0  0  0  0  0  0  0  0  0  0  0
   -0.6358    2.3750   -5.0993 H   0  0  0  0  0  0  0  0  0  0  0  0
  1  5  1  0
  5  8  1  0
  1  2  1  0
  1  3  1  0
  1  4  1  0
  5  6  1  0
  5  7  1  0
  8  9  1  0
  8 10  1  0
  8 11  1  0
 12 16  1  0
 16 17  1  0
 12 13  1  0
 12 14  1  0
 12 15  1  0
 17 18  1  0
 17 19  1  0
 17 20  1  0
M  CHG  1   8   1
M  END
>  <PDB_ID>  (1729) 
pdb6ona

>  <RESIDUE_NAME>  (1729) 
LYS   MET

>  <FRAG_NAME>  (1729) 
ETAM   MSM

>  <FRAG_ATOM_NUM>  (1729) 
fragi: 11  fragj: 9

>  <atom.prop.CHAIN_ID>  (1729) 
A A A A A A A A A A A Z Z Z Z Z Z Z Z Z

>  <atom.prop.IS_HEAVY_ATOM>  (1729) 
1 0 0 0 1 0 0 1 0 0 0 1 0 0 0 1 1 0 0 0

>  <DIFUSE_FUNC_ATOM>  (1729) 
n/a

>  <FINAL_SINGLE_POINT_ENERGY>  (1729) 
0

>  <NONCOV_INTER_ENERGY_QM>  (1729) 
0

>  <FF_Energy>  (1729) 
-5.5

>  <QM_Energy>  (1729) 
-14.83

>  <source>  (1729) 
ETAM_MSM

>  <Index>  (1729) 
11062

$$$$
ETAM-pdb5lqd-A-LYS-368:MSM-pdb5lqd-A-MET-363
     RDKit          3D

 20 18  0  0  0  0  0  0  0  0999 V2000
    1.2365    0.8816    0.0000 C   0  0  0  0  0  0  0  0  0  0  0  0
    1.2155    1.4603    0.8100 H   0  0  0  0  0  0  0  0  0  0  0  0
    1.2284    1.4406   -0.8229 H   0  0  0  0  0  0  0  0  0  0  0  0
    2.1510    0.2887    0.0152 H   0  0  0  0  0  0  0  0  0  0  0  0
    0.0000    0.0000    0.0000 C   0  0  0  0  0  0  0  0  0  0  0  0
    0.0096   -0.5746   -0.8163 H   0  0  0  0  0  0  0  0  0  0  0  0
    0.0091   -0.5755    0.8164 H   0  0  0  0  0  0  0  0  0  0  0  0
   -1.2365    0.8316    0.0000 N   0  0  0  0  0  4  0  0  0  0  0  0
   -1.8616    0.4953   -0.7035 H   0  0  0  0  0  0  0  0  0  0  0  0
   -1.6758    0.7707    0.8958 H   0  0  0  0  0  0  0  0  0  0  0  0
   -0.9955    1.7828   -0.1922 H   0  0  0  0  0  0  0  0  0  0  0  0
   -1.0628    2.5174    4.3312 C   0  0  0  0  0  0  0  0  0  0  0  0
   -1.4953    3.2023    3.7058 H   0  0  0  0  0  0  0  0  0  0  0  0
   -0.0779    2.7853    4.3992 H   0  0  0  0  0  0  0  0  0  0  0  0
   -1.5106    2.6377    5.3176 H   0  0  0  0  0  0  0  0  0  0  0  0
   -1.2374    0.8416    3.6820 S   0  0  0  0  0  0  0  0  0  0  0  0
   -2.9909    0.6169    3.6499 C   0  0  0  0  0  0  0  0  0  0  0  0
   -3.2586    0.0861    2.8397 H   0  0  0  0  0  0  0  0  0  0  0  0
   -3.2930    0.1249    4.4720 H   0  0  0  0  0  0  0  0  0  0  0  0
   -3.4546    1.5076    3.6189 H   0  0  0  0  0  0  0  0  0  0  0  0
  1  5  1  0
  5  8  1  0
  1  2  1  0
  1  3  1  0
  1  4  1  0
  5  6  1  0
  5  7  1  0
  8  9  1  0
  8 10  1  0
  8 11  1  0
 12 16  1  0
 16 17  1  0
 12 13  1  0
 12 14  1  0
 12 15  1  0
 17 18  1  0
 17 19  1  0
 17 20  1  0
M  CHG  1   8   1
M  END
>  <PDB_ID>  (1730) 
pdb5lqd

>  <RESIDUE_NAME>  (1730) 
LYS   MET

>  <FRAG_NAME>  (1730) 
ETAM   MSM

>  <FRAG_ATOM_NUM>  (1730) 
fragi: 11  fragj: 9

>  <atom.prop.CHAIN_ID>  (1730) 
A A A A A A A A A A A Z Z Z Z Z Z Z Z Z

>  <atom.prop.IS_HEAVY_ATOM>  (1730) 
1 0 0 0 1 0 0 1 0 0 0 1 0 0 0 1 1 0 0 0

>  <DIFUSE_FUNC_ATOM>  (1730) 
n/a

>  <FINAL_SINGLE_POINT_ENERGY>  (1730) 
0

>  <NONCOV_INTER_ENERGY_QM>  (1730) 
0

>  <FF_Energy>  (1730) 
-4.65

>  <QM_Energy>  (1730) 
-12.37

>  <source>  (1730) 
ETAM_MSM

>  <Index>  (1730) 
11083

$$$$
ETAM-pdb6ona-B-LYS-307:MSM-pdb6ona-B-MET-388
     RDKit          3D

 20 18  0  0  0  0  0  0  0  0999 V2000
    1.2450    0.8550    0.0000 C   0  0  0  0  0  0  0  0  0  0  0  0
    2.0268    0.2849    0.2492 H   0  0  0  0  0  0  0  0  0  0  0  0
    1.1334    1.5846    0.6725 H   0  0  0  0  0  0  0  0  0  0  0  0
    1.4361    1.3033   -0.9750 H   0  0  0  0  0  0  0  0  0  0  0  0
    0.0000    0.0000    0.0000 C   0  0  0  0  0  0  0  0  0  0  0  0
   -0.0022   -0.5833   -0.8162 H   0  0  0  0  0  0  0  0  0  0  0  0
   -0.0024   -0.5836    0.8166 H   0  0  0  0  0  0  0  0  0  0  0  0
   -1.2450    0.8328   -0.0000 N   0  0  0  0  0  4  0  0  0  0  0  0
   -1.4094    1.1748    0.9230 H   0  0  0  0  0  0  0  0  0  0  0  0
   -1.1264    1.5984   -0.6292 H   0  0  0  0  0  0  0  0  0  0  0  0
   -2.0151    0.2695   -0.2942 H   0  0  0  0  0  0  0  0  0  0  0  0
   -2.5874    3.1131   -3.3252 C   0  0  0  0  0  0  0  0  0  0  0  0
   -1.9651    3.9172   -3.1643 H   0  0  0  0  0  0  0  0  0  0  0  0
   -3.2500    3.1276   -2.5379 H   0  0  0  0  0  0  0  0  0  0  0  0
   -3.1492    3.3034   -4.2398 H   0  0  0  0  0  0  0  0  0  0  0  0
   -1.6535    1.5709   -3.3529 S   0  0  0  0  0  0  0  0  0  0  0  0
   -0.3167    2.0157   -4.4341 C   0  0  0  0  0  0  0  0  0  0  0  0
   -0.4513    2.9479   -4.7814 H   0  0  0  0  0  0  0  0  0  0  0  0
    0.5541    1.9761   -3.9372 H   0  0  0  0  0  0  0  0  0  0  0  0
   -0.2773    1.3812   -5.2112 H   0  0  0  0  0  0  0  0  0  0  0  0
  1  5  1  0
  5  8  1  0
  1  2  1  0
  1  3  1  0
  1  4  1  0
  5  6  1  0
  5  7  1  0
  8  9  1  0
  8 10  1  0
  8 11  1  0
 12 16  1  0
 16 17  1  0
 12 13  1  0
 12 14  1  0
 12 15  1  0
 17 18  1  0
 17 19  1  0
 17 20  1  0
M  CHG  1   8   1
M  END
>  <PDB_ID>  (1731) 
pdb6ona

>  <RESIDUE_NAME>  (1731) 
LYS   MET

>  <FRAG_NAME>  (1731) 
ETAM   MSM

>  <FRAG_ATOM_NUM>  (1731) 
fragi: 11  fragj: 9

>  <atom.prop.CHAIN_ID>  (1731) 
A A A A A A A A A A A Z Z Z Z Z Z Z Z Z

>  <atom.prop.IS_HEAVY_ATOM>  (1731) 
1 0 0 0 1 0 0 1 0 0 0 1 0 0 0 1 1 0 0 0

>  <DIFUSE_FUNC_ATOM>  (1731) 
n/a

>  <FINAL_SINGLE_POINT_ENERGY>  (1731) 
0

>  <NONCOV_INTER_ENERGY_QM>  (1731) 
0

>  <FF_Energy>  (1731) 
-5.39

>  <QM_Energy>  (1731) 
-13.74

>  <source>  (1731) 
ETAM_MSM

>  <Index>  (1731) 
11084

$$$$
ETAM-pdb6pbz-A-LYS-235:MSM-pdb6pbz-A-MET-222
     RDKit          3D

 20 18  0  0  0  0  0  0  0  0999 V2000
    1.2787    0.8409    0.0000 C   0  0  0  0  0  0  0  0  0  0  0  0
    1.0921    1.6944    0.4821 H   0  0  0  0  0  0  0  0  0  0  0  0
    1.5264    1.0344   -0.9474 H   0  0  0  0  0  0  0  0  0  0  0  0
    2.1122    0.3350    0.4874 H   0  0  0  0  0  0  0  0  0  0  0  0
    0.0000    0.0000    0.0000 C   0  0  0  0  0  0  0  0  0  0  0  0
    0.0154   -0.6072   -0.8160 H   0  0  0  0  0  0  0  0  0  0  0  0
    0.0147   -0.6080    0.8163 H   0  0  0  0  0  0  0  0  0  0  0  0
   -1.2787    0.7749    0.0000 N   0  0  0  0  0  4  0  0  0  0  0  0
   -2.0471    0.1389    0.0399 H   0  0  0  0  0  0  0  0  0  0  0  0
   -1.2972    1.3775    0.7965 H   0  0  0  0  0  0  0  0  0  0  0  0
   -1.3333    1.3179   -0.8361 H   0  0  0  0  0  0  0  0  0  0  0  0
   -0.4853    5.0919    0.6408 C   0  0  0  0  0  0  0  0  0  0  0  0
    0.3149    4.7613    0.0902 H   0  0  0  0  0  0  0  0  0  0  0  0
   -0.1284    5.8776    1.1960 H   0  0  0  0  0  0  0  0  0  0  0  0
   -1.2508    5.4623   -0.0411 H   0  0  0  0  0  0  0  0  0  0  0  0
   -1.1096    3.7998    1.6942 S   0  0  0  0  0  0  0  0  0  0  0  0
   -2.5397    4.6227    2.3811 C   0  0  0  0  0  0  0  0  0  0  0  0
   -3.1053    4.9912    1.6403 H   0  0  0  0  0  0  0  0  0  0  0  0
   -3.0799    3.9709    2.9159 H   0  0  0  0  0  0  0  0  0  0  0  0
   -2.2442    5.3732    2.9760 H   0  0  0  0  0  0  0  0  0  0  0  0
  1  5  1  0
  5  8  1  0
  1  2  1  0
  1  3  1  0
  1  4  1  0
  5  6  1  0
  5  7  1  0
  8  9  1  0
  8 10  1  0
  8 11  1  0
 12 16  1  0
 16 17  1  0
 12 13  1  0
 12 14  1  0
 12 15  1  0
 17 18  1  0
 17 19  1  0
 17 20  1  0
M  CHG  1   8   1
M  END
>  <PDB_ID>  (1732) 
pdb6pbz

>  <RESIDUE_NAME>  (1732) 
LYS   MET

>  <FRAG_NAME>  (1732) 
ETAM   MSM

>  <FRAG_ATOM_NUM>  (1732) 
fragi: 11  fragj: 9

>  <atom.prop.CHAIN_ID>  (1732) 
A A A A A A A A A A A Z Z Z Z Z Z Z Z Z

>  <atom.prop.IS_HEAVY_ATOM>  (1732) 
1 0 0 0 1 0 0 1 0 0 0 1 0 0 0 1 1 0 0 0

>  <DIFUSE_FUNC_ATOM>  (1732) 
n/a

>  <FINAL_SINGLE_POINT_ENERGY>  (1732) 
0

>  <NONCOV_INTER_ENERGY_QM>  (1732) 
0

>  <FF_Energy>  (1732) 
-5.73

>  <QM_Energy>  (1732) 
-14.75

>  <source>  (1732) 
ETAM_MSM

>  <Index>  (1732) 
11085

$$$$
ETAM-pdb5ltq-B-LYS-79:MSM-pdb5ltq-B-MET-71
     RDKit          3D

 20 18  0  0  0  0  0  0  0  0999 V2000
    1.2519    0.8598    0.0000 C   0  0  0  0  0  0  0  0  0  0  0  0
    1.2984    1.3559    0.8623 H   0  0  0  0  0  0  0  0  0  0  0  0
    1.1995    1.4987   -0.7615 H   0  0  0  0  0  0  0  0  0  0  0  0
    2.1550    0.2588   -0.1070 H   0  0  0  0  0  0  0  0  0  0  0  0
    0.0000    0.0000    0.0000 C   0  0  0  0  0  0  0  0  0  0  0  0
    0.0079   -0.5884   -0.8163 H   0  0  0  0  0  0  0  0  0  0  0  0
    0.0075   -0.5887    0.8168 H   0  0  0  0  0  0  0  0  0  0  0  0
   -1.2519    0.8119    0.0000 N   0  0  0  0  0  4  0  0  0  0  0  0
   -1.2083    1.4855    0.7367 H   0  0  0  0  0  0  0  0  0  0  0  0
   -1.3416    1.2791   -0.8787 H   0  0  0  0  0  0  0  0  0  0  0  0
   -2.0356    0.2093    0.1419 H   0  0  0  0  0  0  0  0  0  0  0  0
   -0.2064   -0.4094    4.9780 C   0  0  0  0  0  0  0  0  0  0  0  0
   -0.5170   -1.3431    4.7396 H   0  0  0  0  0  0  0  0  0  0  0  0
   -1.0326    0.1621    5.1062 H   0  0  0  0  0  0  0  0  0  0  0  0
    0.3500   -0.4472    5.9146 H   0  0  0  0  0  0  0  0  0  0  0  0
    0.8401    0.2666    3.6713 S   0  0  0  0  0  0  0  0  0  0  0  0
    1.0359    1.9606    4.2227 C   0  0  0  0  0  0  0  0  0  0  0  0
    1.4399    1.9704    5.1381 H   0  0  0  0  0  0  0  0  0  0  0  0
    1.6357    2.4525    3.5893 H   0  0  0  0  0  0  0  0  0  0  0  0
    0.1420    2.4103    4.2496 H   0  0  0  0  0  0  0  0  0  0  0  0
  1  5  1  0
  5  8  1  0
  1  2  1  0
  1  3  1  0
  1  4  1  0
  5  6  1  0
  5  7  1  0
  8  9  1  0
  8 10  1  0
  8 11  1  0
 12 16  1  0
 16 17  1  0
 12 13  1  0
 12 14  1  0
 12 15  1  0
 17 18  1  0
 17 19  1  0
 17 20  1  0
M  CHG  1   8   1
M  END
>  <PDB_ID>  (1733) 
pdb5ltq

>  <RESIDUE_NAME>  (1733) 
LYS   MET

>  <FRAG_NAME>  (1733) 
ETAM   MSM

>  <FRAG_ATOM_NUM>  (1733) 
fragi: 11  fragj: 9

>  <atom.prop.CHAIN_ID>  (1733) 
A A A A A A A A A A A Z Z Z Z Z Z Z Z Z

>  <atom.prop.IS_HEAVY_ATOM>  (1733) 
1 0 0 0 1 0 0 1 0 0 0 1 0 0 0 1 1 0 0 0

>  <DIFUSE_FUNC_ATOM>  (1733) 
n/a

>  <FINAL_SINGLE_POINT_ENERGY>  (1733) 
0

>  <NONCOV_INTER_ENERGY_QM>  (1733) 
0

>  <FF_Energy>  (1733) 
-4.08

>  <QM_Energy>  (1733) 
-9.38

>  <source>  (1733) 
ETAM_MSM

>  <Index>  (1733) 
11099

$$$$
ETAM-pdb5ltq-L-LYS-79:MSM-pdb5ltq-L-MET-71
     RDKit          3D

 20 18  0  0  0  0  0  0  0  0999 V2000
    1.2511    0.8599   -0.0000 C   0  0  0  0  0  0  0  0  0  0  0  0
    1.4294    1.1618    0.9304 H   0  0  0  0  0  0  0  0  0  0  0  0
    1.0997    1.6415   -0.5952 H   0  0  0  0  0  0  0  0  0  0  0  0
    2.1159    0.3033   -0.3613 H   0  0  0  0  0  0  0  0  0  0  0  0
    0.0000    0.0000    0.0000 C   0  0  0  0  0  0  0  0  0  0  0  0
    0.0088   -0.5889   -0.8160 H   0  0  0  0  0  0  0  0  0  0  0  0
    0.0079   -0.5889    0.8161 H   0  0  0  0  0  0  0  0  0  0  0  0
   -1.2511    0.8110   -0.0000 N   0  0  0  0  0  4  0  0  0  0  0  0
   -1.3163    1.3176    0.8583 H   0  0  0  0  0  0  0  0  0  0  0  0
   -1.2293    1.4516   -0.7666 H   0  0  0  0  0  0  0  0  0  0  0  0
   -2.0387    0.2030   -0.0913 H   0  0  0  0  0  0  0  0  0  0  0  0
   -3.2888   -3.7316    0.3365 C   0  0  0  0  0  0  0  0  0  0  0  0
   -3.2508   -4.2235   -0.5481 H   0  0  0  0  0  0  0  0  0  0  0  0
   -4.0651   -3.0827    0.2901 H   0  0  0  0  0  0  0  0  0  0  0  0
   -3.4695   -4.4493    1.1367 H   0  0  0  0  0  0  0  0  0  0  0  0
   -1.7434   -2.8551    0.6448 S   0  0  0  0  0  0  0  0  0  0  0  0
   -2.0930   -2.0694    2.2168 C   0  0  0  0  0  0  0  0  0  0  0  0
   -1.6861   -2.6061    2.9574 H   0  0  0  0  0  0  0  0  0  0  0  0
   -1.7051   -1.1464    2.2238 H   0  0  0  0  0  0  0  0  0  0  0  0
   -3.0835   -2.0139    2.3513 H   0  0  0  0  0  0  0  0  0  0  0  0
  1  5  1  0
  5  8  1  0
  1  2  1  0
  1  3  1  0
  1  4  1  0
  5  6  1  0
  5  7  1  0
  8  9  1  0
  8 10  1  0
  8 11  1  0
 12 16  1  0
 16 17  1  0
 12 13  1  0
 12 14  1  0
 12 15  1  0
 17 18  1  0
 17 19  1  0
 17 20  1  0
M  CHG  1   8   1
M  END
>  <PDB_ID>  (1734) 
pdb5ltq

>  <RESIDUE_NAME>  (1734) 
LYS   MET

>  <FRAG_NAME>  (1734) 
ETAM   MSM

>  <FRAG_ATOM_NUM>  (1734) 
fragi: 11  fragj: 9

>  <atom.prop.CHAIN_ID>  (1734) 
A A A A A A A A A A A Z Z Z Z Z Z Z Z Z

>  <atom.prop.IS_HEAVY_ATOM>  (1734) 
1 0 0 0 1 0 0 1 0 0 0 1 0 0 0 1 1 0 0 0

>  <DIFUSE_FUNC_ATOM>  (1734) 
n/a

>  <FINAL_SINGLE_POINT_ENERGY>  (1734) 
0

>  <NONCOV_INTER_ENERGY_QM>  (1734) 
0

>  <FF_Energy>  (1734) 
-3.21

>  <QM_Energy>  (1734) 
-9.03

>  <source>  (1734) 
ETAM_MSM

>  <Index>  (1734) 
11100

$$$$
ETAM-pdb5ltq-N-LYS-79:MSM-pdb5ltq-N-MET-71
     RDKit          3D

 20 18  0  0  0  0  0  0  0  0999 V2000
    1.2436    0.8717    0.0000 C   0  0  0  0  0  0  0  0  0  0  0  0
    1.2821    1.3717    0.8628 H   0  0  0  0  0  0  0  0  0  0  0  0
    1.1830    1.5126   -0.7616 H   0  0  0  0  0  0  0  0  0  0  0  0
    2.1559    0.2848   -0.1062 H   0  0  0  0  0  0  0  0  0  0  0  0
    0.0000    0.0000    0.0000 C   0  0  0  0  0  0  0  0  0  0  0  0
    0.0115   -0.5834   -0.8159 H   0  0  0  0  0  0  0  0  0  0  0  0
    0.0111   -0.5832    0.8160 H   0  0  0  0  0  0  0  0  0  0  0  0
   -1.2436    0.8168    0.0000 N   0  0  0  0  0  4  0  0  0  0  0  0
   -1.7889    0.5911    0.8070 H   0  0  0  0  0  0  0  0  0  0  0  0
   -1.0028    1.7873    0.0183 H   0  0  0  0  0  0  0  0  0  0  0  0
   -1.7711    0.6185   -0.8257 H   0  0  0  0  0  0  0  0  0  0  0  0
   -3.9604   -2.8565    1.8808 C   0  0  0  0  0  0  0  0  0  0  0  0
   -4.0429   -3.5585    1.1438 H   0  0  0  0  0  0  0  0  0  0  0  0
   -4.7085   -2.1820    1.7163 H   0  0  0  0  0  0  0  0  0  0  0  0
   -4.1296   -3.3391    2.8434 H   0  0  0  0  0  0  0  0  0  0  0  0
   -2.3475   -2.0492    1.8153 S   0  0  0  0  0  0  0  0  0  0  0  0
   -2.5681   -0.7414    3.0209 C   0  0  0  0  0  0  0  0  0  0  0  0
   -1.7867   -0.7255    3.6456 H   0  0  0  0  0  0  0  0  0  0  0  0
   -2.6348    0.1395    2.5511 H   0  0  0  0  0  0  0  0  0  0  0  0
   -3.4071   -0.9043    3.5428 H   0  0  0  0  0  0  0  0  0  0  0  0
  1  5  1  0
  5  8  1  0
  1  2  1  0
  1  3  1  0
  1  4  1  0
  5  6  1  0
  5  7  1  0
  8  9  1  0
  8 10  1  0
  8 11  1  0
 12 16  1  0
 16 17  1  0
 12 13  1  0
 12 14  1  0
 12 15  1  0
 17 18  1  0
 17 19  1  0
 17 20  1  0
M  CHG  1   8   1
M  END
>  <PDB_ID>  (1735) 
pdb5ltq

>  <RESIDUE_NAME>  (1735) 
LYS   MET

>  <FRAG_NAME>  (1735) 
ETAM   MSM

>  <FRAG_ATOM_NUM>  (1735) 
fragi: 11  fragj: 9

>  <atom.prop.CHAIN_ID>  (1735) 
A A A A A A A A A A A Z Z Z Z Z Z Z Z Z

>  <atom.prop.IS_HEAVY_ATOM>  (1735) 
1 0 0 0 1 0 0 1 0 0 0 1 0 0 0 1 1 0 0 0

>  <DIFUSE_FUNC_ATOM>  (1735) 
n/a

>  <FINAL_SINGLE_POINT_ENERGY>  (1735) 
0

>  <NONCOV_INTER_ENERGY_QM>  (1735) 
0

>  <FF_Energy>  (1735) 
-4.0

>  <QM_Energy>  (1735) 
-9.76

>  <source>  (1735) 
ETAM_MSM

>  <Index>  (1735) 
11101

$$$$
ETAM-pdb6or9-D-LYS-91:MSM-pdb6or9-D-MET-95
     RDKit          3D

 20 18  0  0  0  0  0  0  0  0999 V2000
    1.2391    0.8696   -0.0000 C   0  0  0  0  0  0  0  0  0  0  0  0
    1.3669    1.2429    0.9156 H   0  0  0  0  0  0  0  0  0  0  0  0
    1.1087    1.6105   -0.6544 H   0  0  0  0  0  0  0  0  0  0  0  0
    2.1287    0.3043   -0.2779 H   0  0  0  0  0  0  0  0  0  0  0  0
    0.0000    0.0000    0.0000 C   0  0  0  0  0  0  0  0  0  0  0  0
    0.0054   -0.5796   -0.8161 H   0  0  0  0  0  0  0  0  0  0  0  0
    0.0054   -0.5799    0.8163 H   0  0  0  0  0  0  0  0  0  0  0  0
   -1.2391    0.8284   -0.0000 N   0  0  0  0  0  4  0  0  0  0  0  0
   -1.6795    0.7644    0.8946 H   0  0  0  0  0  0  0  0  0  0  0  0
   -1.0006    1.7801   -0.1893 H   0  0  0  0  0  0  0  0  0  0  0  0
   -1.8620    0.4920   -0.7055 H   0  0  0  0  0  0  0  0  0  0  0  0
    2.0368   -3.6027   -2.1184 C   0  0  0  0  0  0  0  0  0  0  0  0
    1.7978   -4.3611   -1.4716 H   0  0  0  0  0  0  0  0  0  0  0  0
    2.7771   -3.0678   -1.6550 H   0  0  0  0  0  0  0  0  0  0  0  0
    2.4348   -4.0349   -3.0365 H   0  0  0  0  0  0  0  0  0  0  0  0
    0.5975   -2.5551   -2.4242 S   0  0  0  0  0  0  0  0  0  0  0  0
   -0.5566   -3.6913   -3.2133 C   0  0  0  0  0  0  0  0  0  0  0  0
   -0.6297   -3.4676   -4.1848 H   0  0  0  0  0  0  0  0  0  0  0  0
   -0.2228   -4.6274   -3.1087 H   0  0  0  0  0  0  0  0  0  0  0  0
   -1.4530   -3.6051   -2.7809 H   0  0  0  0  0  0  0  0  0  0  0  0
  1  5  1  0
  5  8  1  0
  1  2  1  0
  1  3  1  0
  1  4  1  0
  5  6  1  0
  5  7  1  0
  8  9  1  0
  8 10  1  0
  8 11  1  0
 12 16  1  0
 16 17  1  0
 12 13  1  0
 12 14  1  0
 12 15  1  0
 17 18  1  0
 17 19  1  0
 17 20  1  0
M  CHG  1   8   1
M  END
>  <PDB_ID>  (1736) 
pdb6or9

>  <RESIDUE_NAME>  (1736) 
LYS   MET

>  <FRAG_NAME>  (1736) 
ETAM   MSM

>  <FRAG_ATOM_NUM>  (1736) 
fragi: 11  fragj: 9

>  <atom.prop.CHAIN_ID>  (1736) 
A A A A A A A A A A A Z Z Z Z Z Z Z Z Z

>  <atom.prop.IS_HEAVY_ATOM>  (1736) 
1 0 0 0 1 0 0 1 0 0 0 1 0 0 0 1 1 0 0 0

>  <DIFUSE_FUNC_ATOM>  (1736) 
n/a

>  <FINAL_SINGLE_POINT_ENERGY>  (1736) 
0

>  <NONCOV_INTER_ENERGY_QM>  (1736) 
0

>  <FF_Energy>  (1736) 
-2.8

>  <QM_Energy>  (1736) 
-8.02

>  <source>  (1736) 
ETAM_MSM

>  <Index>  (1736) 
11106

$$$$
ETAM-pdb5lqd-B-LYS-368:MSM-pdb5lqd-B-MET-363
     RDKit          3D

 20 18  0  0  0  0  0  0  0  0999 V2000
    1.2616    0.8768   -0.0000 C   0  0  0  0  0  0  0  0  0  0  0  0
    1.2486    1.4456    0.8076 H   0  0  0  0  0  0  0  0  0  0  0  0
    1.2661    1.4199   -0.8250 H   0  0  0  0  0  0  0  0  0  0  0  0
    2.1595    0.2593    0.0202 H   0  0  0  0  0  0  0  0  0  0  0  0
    0.0000    0.0000    0.0000 C   0  0  0  0  0  0  0  0  0  0  0  0
    0.0254   -0.5918   -0.8169 H   0  0  0  0  0  0  0  0  0  0  0  0
    0.0247   -0.5916    0.8160 H   0  0  0  0  0  0  0  0  0  0  0  0
   -1.2616    0.7850    0.0000 N   0  0  0  0  0  4  0  0  0  0  0  0
   -1.1897    1.5310   -0.6627 H   0  0  0  0  0  0  0  0  0  0  0  0
   -2.0252    0.1886   -0.2495 H   0  0  0  0  0  0  0  0  0  0  0  0
   -1.4176    1.1632    0.9125 H   0  0  0  0  0  0  0  0  0  0  0  0
   -1.1394    1.6726    4.5741 C   0  0  0  0  0  0  0  0  0  0  0  0
   -1.6086    2.4203    4.0324 H   0  0  0  0  0  0  0  0  0  0  0  0
   -0.1815    2.0368    4.7256 H   0  0  0  0  0  0  0  0  0  0  0  0
   -1.6278    1.6140    5.5468 H   0  0  0  0  0  0  0  0  0  0  0  0
   -1.1011    0.1301    3.6417 S   0  0  0  0  0  0  0  0  0  0  0  0
   -2.8368   -0.1534    3.3161 C   0  0  0  0  0  0  0  0  0  0  0  0
   -3.3902    0.4830    3.8572 H   0  0  0  0  0  0  0  0  0  0  0  0
   -3.0250   -0.0105    2.3427 H   0  0  0  0  0  0  0  0  0  0  0  0
   -3.0768   -1.0934    3.5648 H   0  0  0  0  0  0  0  0  0  0  0  0
  1  5  1  0
  5  8  1  0
  1  2  1  0
  1  3  1  0
  1  4  1  0
  5  6  1  0
  5  7  1  0
  8  9  1  0
  8 10  1  0
  8 11  1  0
 12 16  1  0
 16 17  1  0
 12 13  1  0
 12 14  1  0
 12 15  1  0
 17 18  1  0
 17 19  1  0
 17 20  1  0
M  CHG  1   8   1
M  END
>  <PDB_ID>  (1737) 
pdb5lqd

>  <RESIDUE_NAME>  (1737) 
LYS   MET

>  <FRAG_NAME>  (1737) 
ETAM   MSM

>  <FRAG_ATOM_NUM>  (1737) 
fragi: 11  fragj: 9

>  <atom.prop.CHAIN_ID>  (1737) 
A A A A A A A A A A A Z Z Z Z Z Z Z Z Z

>  <atom.prop.IS_HEAVY_ATOM>  (1737) 
1 0 0 0 1 0 0 1 0 0 0 1 0 0 0 1 1 0 0 0

>  <DIFUSE_FUNC_ATOM>  (1737) 
n/a

>  <FINAL_SINGLE_POINT_ENERGY>  (1737) 
0

>  <NONCOV_INTER_ENERGY_QM>  (1737) 
0

>  <FF_Energy>  (1737) 
-3.96

>  <QM_Energy>  (1737) 
-10.63

>  <source>  (1737) 
ETAM_MSM

>  <Index>  (1737) 
11122

$$$$
ETAM-pdb6pon-A-LYS-81:MSM-pdb6pon-B-MET-77
     RDKit          3D

 20 18  0  0  0  0  0  0  0  0999 V2000
    1.2519    0.8653    0.0000 C   0  0  0  0  0  0  0  0  0  0  0  0
    1.0455    1.7358    0.4569 H   0  0  0  0  0  0  0  0  0  0  0  0
    1.5161    1.0550   -0.9509 H   0  0  0  0  0  0  0  0  0  0  0  0
    2.1122    0.4232    0.5025 H   0  0  0  0  0  0  0  0  0  0  0  0
    0.0000    0.0000    0.0000 C   0  0  0  0  0  0  0  0  0  0  0  0
   -0.0018   -0.5769   -0.8163 H   0  0  0  0  0  0  0  0  0  0  0  0
   -0.0019   -0.5769    0.8168 H   0  0  0  0  0  0  0  0  0  0  0  0
   -1.2519    0.8421   -0.0000 N   0  0  0  0  0  4  0  0  0  0  0  0
   -1.2131    1.4762    0.7675 H   0  0  0  0  0  0  0  0  0  0  0  0
   -1.3003    1.3463   -0.8584 H   0  0  0  0  0  0  0  0  0  0  0  0
   -2.0428    0.2426    0.0904 H   0  0  0  0  0  0  0  0  0  0  0  0
   -0.2963   -0.5381   -4.8610 C   0  0  0  0  0  0  0  0  0  0  0  0
    0.5834    0.0031   -4.8645 H   0  0  0  0  0  0  0  0  0  0  0  0
   -1.0359    0.1704   -4.9947 H   0  0  0  0  0  0  0  0  0  0  0  0
   -0.2942   -1.1987   -5.7279 H   0  0  0  0  0  0  0  0  0  0  0  0
   -0.5120   -1.3903   -3.2852 S   0  0  0  0  0  0  0  0  0  0  0  0
    1.2061   -1.4117   -2.8790 C   0  0  0  0  0  0  0  0  0  0  0  0
    1.3433   -1.8099   -1.9658 H   0  0  0  0  0  0  0  0  0  0  0  0
    1.7157   -1.9613   -3.5490 H   0  0  0  0  0  0  0  0  0  0  0  0
    1.5766   -0.4770   -2.8808 H   0  0  0  0  0  0  0  0  0  0  0  0
  1  5  1  0
  5  8  1  0
  1  2  1  0
  1  3  1  0
  1  4  1  0
  5  6  1  0
  5  7  1  0
  8  9  1  0
  8 10  1  0
  8 11  1  0
 12 16  1  0
 16 17  1  0
 12 13  1  0
 12 14  1  0
 12 15  1  0
 17 18  1  0
 17 19  1  0
 17 20  1  0
M  CHG  1   8   1
M  END
>  <PDB_ID>  (1738) 
pdb6pon

>  <RESIDUE_NAME>  (1738) 
LYS   MET

>  <FRAG_NAME>  (1738) 
ETAM   MSM

>  <FRAG_ATOM_NUM>  (1738) 
fragi: 11  fragj: 9

>  <atom.prop.CHAIN_ID>  (1738) 
A A A A A A A A A A A Z Z Z Z Z Z Z Z Z

>  <atom.prop.IS_HEAVY_ATOM>  (1738) 
1 0 0 0 1 0 0 1 0 0 0 1 0 0 0 1 1 0 0 0

>  <DIFUSE_FUNC_ATOM>  (1738) 
n/a

>  <FINAL_SINGLE_POINT_ENERGY>  (1738) 
0

>  <NONCOV_INTER_ENERGY_QM>  (1738) 
0

>  <FF_Energy>  (1738) 
-1.55

>  <QM_Energy>  (1738) 
-7.86

>  <source>  (1738) 
ETAM_MSM

>  <Index>  (1738) 
11128

$$$$
ETAM-pdb6phu-A-LYS-104:MSM-pdb6phu-A-MET-130
     RDKit          3D

 20 18  0  0  0  0  0  0  0  0999 V2000
    1.2327    0.8765   -0.0000 C   0  0  0  0  0  0  0  0  0  0  0  0
    1.2134    1.4552    0.8166 H   0  0  0  0  0  0  0  0  0  0  0  0
    1.2135    1.4545   -0.8164 H   0  0  0  0  0  0  0  0  0  0  0  0
    2.1579    0.3001    0.0007 H   0  0  0  0  0  0  0  0  0  0  0  0
    0.0000    0.0000    0.0000 C   0  0  0  0  0  0  0  0  0  0  0  0
    0.0093   -0.5782   -0.8159 H   0  0  0  0  0  0  0  0  0  0  0  0
    0.0082   -0.5776    0.8170 H   0  0  0  0  0  0  0  0  0  0  0  0
   -1.2327    0.8262    0.0000 N   0  0  0  0  0  4  0  0  0  0  0  0
   -1.5011    1.0255   -0.9430 H   0  0  0  0  0  0  0  0  0  0  0  0
   -1.9692    0.3283    0.4572 H   0  0  0  0  0  0  0  0  0  0  0  0
   -1.0589    1.6843    0.4842 H   0  0  0  0  0  0  0  0  0  0  0  0
    1.1452   -0.1232    5.5722 C   0  0  0  0  0  0  0  0  0  0  0  0
    0.6549    0.5113    6.2062 H   0  0  0  0  0  0  0  0  0  0  0  0
    2.0413    0.3240    5.3641 H   0  0  0  0  0  0  0  0  0  0  0  0
    1.3351   -1.0604    6.0954 H   0  0  0  0  0  0  0  0  0  0  0  0
    0.1858   -0.3617    4.0458 S   0  0  0  0  0  0  0  0  0  0  0  0
    1.5414   -0.7103    2.9312 C   0  0  0  0  0  0  0  0  0  0  0  0
    2.2707   -0.0382    3.0685 H   0  0  0  0  0  0  0  0  0  0  0  0
    1.8981   -1.6279    3.1119 H   0  0  0  0  0  0  0  0  0  0  0  0
    1.2194   -0.6612    1.9841 H   0  0  0  0  0  0  0  0  0  0  0  0
  1  5  1  0
  5  8  1  0
  1  2  1  0
  1  3  1  0
  1  4  1  0
  5  6  1  0
  5  7  1  0
  8  9  1  0
  8 10  1  0
  8 11  1  0
 12 16  1  0
 16 17  1  0
 12 13  1  0
 12 14  1  0
 12 15  1  0
 17 18  1  0
 17 19  1  0
 17 20  1  0
M  CHG  1   8   1
M  END
>  <PDB_ID>  (1739) 
pdb6phu

>  <RESIDUE_NAME>  (1739) 
LYS   MET

>  <FRAG_NAME>  (1739) 
ETAM   MSM

>  <FRAG_ATOM_NUM>  (1739) 
fragi: 11  fragj: 9

>  <atom.prop.CHAIN_ID>  (1739) 
A A A A A A A A A A A Z Z Z Z Z Z Z Z Z

>  <atom.prop.IS_HEAVY_ATOM>  (1739) 
1 0 0 0 1 0 0 1 0 0 0 1 0 0 0 1 1 0 0 0

>  <DIFUSE_FUNC_ATOM>  (1739) 
n/a

>  <FINAL_SINGLE_POINT_ENERGY>  (1739) 
0

>  <NONCOV_INTER_ENERGY_QM>  (1739) 
0

>  <FF_Energy>  (1739) 
7.28

>  <QM_Energy>  (1739) 
-1.97

>  <source>  (1739) 
ETAM_MSM

>  <Index>  (1739) 
11129

$$$$
ETAM-pdb6pd3-A-LYS-314:MSM-pdb6pd3-A-MET-925
     RDKit          3D

 20 18  0  0  0  0  0  0  0  0999 V2000
    1.2519    0.8508   -0.0000 C   0  0  0  0  0  0  0  0  0  0  0  0
    1.2467    1.4211   -0.8264 H   0  0  0  0  0  0  0  0  0  0  0  0
    2.0494    0.2408   -0.0314 H   0  0  0  0  0  0  0  0  0  0  0  0
    1.3313    1.4956    0.8752 H   0  0  0  0  0  0  0  0  0  0  0  0
    0.0000    0.0000    0.0000 C   0  0  0  0  0  0  0  0  0  0  0  0
    0.0138   -0.5998   -0.8164 H   0  0  0  0  0  0  0  0  0  0  0  0
    0.0131   -0.5995    0.8167 H   0  0  0  0  0  0  0  0  0  0  0  0
   -1.2519    0.7883    0.0000 N   0  0  0  0  0  4  0  0  0  0  0  0
   -1.3550    1.2553    0.8791 H   0  0  0  0  0  0  0  0  0  0  0  0
   -1.2204    1.4683   -0.7341 H   0  0  0  0  0  0  0  0  0  0  0  0
   -2.0330    0.1787   -0.1457 H   0  0  0  0  0  0  0  0  0  0  0  0
   -3.2102    2.5381    3.0074 C   0  0  0  0  0  0  0  0  0  0  0  0
   -2.5272    2.3865    3.7528 H   0  0  0  0  0  0  0  0  0  0  0  0
   -3.5854    1.6156    2.7780 H   0  0  0  0  0  0  0  0  0  0  0  0
   -4.0177    3.1619    3.3909 H   0  0  0  0  0  0  0  0  0  0  0  0
   -2.4202    3.2784    1.5650 S   0  0  0  0  0  0  0  0  0  0  0  0
   -1.1929    4.2999    2.3764 C   0  0  0  0  0  0  0  0  0  0  0  0
   -0.3101    4.1936    1.9168 H   0  0  0  0  0  0  0  0  0  0  0  0
   -1.4742    5.2600    2.3352 H   0  0  0  0  0  0  0  0  0  0  0  0
   -1.1032    4.0215    3.3338 H   0  0  0  0  0  0  0  0  0  0  0  0
  1  5  1  0
  5  8  1  0
  1  2  1  0
  1  3  1  0
  1  4  1  0
  5  6  1  0
  5  7  1  0
  8  9  1  0
  8 10  1  0
  8 11  1  0
 12 16  1  0
 16 17  1  0
 12 13  1  0
 12 14  1  0
 12 15  1  0
 17 18  1  0
 17 19  1  0
 17 20  1  0
M  CHG  1   8   1
M  END
>  <PDB_ID>  (1740) 
pdb6pd3

>  <RESIDUE_NAME>  (1740) 
LYS   MET

>  <FRAG_NAME>  (1740) 
ETAM   MSM

>  <FRAG_ATOM_NUM>  (1740) 
fragi: 11  fragj: 9

>  <atom.prop.CHAIN_ID>  (1740) 
A A A A A A A A A A A Z Z Z Z Z Z Z Z Z

>  <atom.prop.IS_HEAVY_ATOM>  (1740) 
1 0 0 0 1 0 0 1 0 0 0 1 0 0 0 1 1 0 0 0

>  <DIFUSE_FUNC_ATOM>  (1740) 
n/a

>  <FINAL_SINGLE_POINT_ENERGY>  (1740) 
0

>  <NONCOV_INTER_ENERGY_QM>  (1740) 
0

>  <FF_Energy>  (1740) 
-4.82

>  <QM_Energy>  (1740) 
-14.43

>  <source>  (1740) 
ETAM_MSM

>  <Index>  (1740) 
11134

$$$$
ETAM-pdb6pcx-A-LYS-314:MSM-pdb6pcx-A-MET-925
     RDKit          3D

 20 18  0  0  0  0  0  0  0  0999 V2000
    1.2506    0.8533    0.0000 C   0  0  0  0  0  0  0  0  0  0  0  0
    1.2479    1.4168   -0.8326 H   0  0  0  0  0  0  0  0  0  0  0  0
    2.0491    0.2432   -0.0265 H   0  0  0  0  0  0  0  0  0  0  0  0
    1.3288    1.5049    0.8703 H   0  0  0  0  0  0  0  0  0  0  0  0
    0.0000    0.0000    0.0000 C   0  0  0  0  0  0  0  0  0  0  0  0
    0.0141   -0.5977   -0.8165 H   0  0  0  0  0  0  0  0  0  0  0  0
    0.0132   -0.5974    0.8164 H   0  0  0  0  0  0  0  0  0  0  0  0
   -1.2506    0.7918   -0.0000 N   0  0  0  0  0  4  0  0  0  0  0  0
   -1.9908    0.2502    0.4012 H   0  0  0  0  0  0  0  0  0  0  0  0
   -1.1200    1.6256    0.5381 H   0  0  0  0  0  0  0  0  0  0  0  0
   -1.4914    1.0382   -0.9399 H   0  0  0  0  0  0  0  0  0  0  0  0
   -2.8887    2.8763    3.2198 C   0  0  0  0  0  0  0  0  0  0  0  0
   -2.2252    2.7136    3.9877 H   0  0  0  0  0  0  0  0  0  0  0  0
   -3.3552    1.9728    3.0704 H   0  0  0  0  0  0  0  0  0  0  0  0
   -3.6312    3.6037    3.5483 H   0  0  0  0  0  0  0  0  0  0  0  0
   -2.0153    3.3918    1.7268 S   0  0  0  0  0  0  0  0  0  0  0  0
   -0.8721    4.5815    2.4260 C   0  0  0  0  0  0  0  0  0  0  0  0
   -0.8882    5.4216    1.8821 H   0  0  0  0  0  0  0  0  0  0  0  0
   -1.1393    4.7901    3.3672 H   0  0  0  0  0  0  0  0  0  0  0  0
    0.0537    4.2006    2.4202 H   0  0  0  0  0  0  0  0  0  0  0  0
  1  5  1  0
  5  8  1  0
  1  2  1  0
  1  3  1  0
  1  4  1  0
  5  6  1  0
  5  7  1  0
  8  9  1  0
  8 10  1  0
  8 11  1  0
 12 16  1  0
 16 17  1  0
 12 13  1  0
 12 14  1  0
 12 15  1  0
 17 18  1  0
 17 19  1  0
 17 20  1  0
M  CHG  1   8   1
M  END
>  <PDB_ID>  (1741) 
pdb6pcx

>  <RESIDUE_NAME>  (1741) 
LYS   MET

>  <FRAG_NAME>  (1741) 
ETAM   MSM

>  <FRAG_ATOM_NUM>  (1741) 
fragi: 11  fragj: 9

>  <atom.prop.CHAIN_ID>  (1741) 
A A A A A A A A A A A Z Z Z Z Z Z Z Z Z

>  <atom.prop.IS_HEAVY_ATOM>  (1741) 
1 0 0 0 1 0 0 1 0 0 0 1 0 0 0 1 1 0 0 0

>  <DIFUSE_FUNC_ATOM>  (1741) 
n/a

>  <FINAL_SINGLE_POINT_ENERGY>  (1741) 
0

>  <NONCOV_INTER_ENERGY_QM>  (1741) 
0

>  <FF_Energy>  (1741) 
-5.41

>  <QM_Energy>  (1741) 
-15.77

>  <source>  (1741) 
ETAM_MSM

>  <Index>  (1741) 
11136

$$$$
ETAM-pdb6pta-A-LYS-142:MSM-pdb6pta-A-MET-134
     RDKit          3D

 20 18  0  0  0  0  0  0  0  0999 V2000
    1.2463    0.8731    0.0000 C   0  0  0  0  0  0  0  0  0  0  0  0
    1.1808    1.5185   -0.7544 H   0  0  0  0  0  0  0  0  0  0  0  0
    2.0431    0.2884   -0.1134 H   0  0  0  0  0  0  0  0  0  0  0  0
    1.3454    1.4293    0.9322 H   0  0  0  0  0  0  0  0  0  0  0  0
    0.0000    0.0000    0.0000 C   0  0  0  0  0  0  0  0  0  0  0  0
    0.0125   -0.5838   -0.8159 H   0  0  0  0  0  0  0  0  0  0  0  0
    0.0122   -0.5836    0.8164 H   0  0  0  0  0  0  0  0  0  0  0  0
   -1.2463    0.8133    0.0000 N   0  0  0  0  0  4  0  0  0  0  0  0
   -1.0717    1.6869    0.4522 H   0  0  0  0  0  0  0  0  0  0  0  0
   -1.5363    0.9763   -0.9427 H   0  0  0  0  0  0  0  0  0  0  0  0
   -1.9643    0.3204    0.4908 H   0  0  0  0  0  0  0  0  0  0  0  0
   -3.5240    3.5597    3.9778 C   0  0  0  0  0  0  0  0  0  0  0  0
   -4.0843    2.6910    3.9870 H   0  0  0  0  0  0  0  0  0  0  0  0
   -4.2270    4.3170    3.9367 H   0  0  0  0  0  0  0  0  0  0  0  0
   -3.0014    3.6339    4.9315 H   0  0  0  0  0  0  0  0  0  0  0  0
   -2.4489    3.6093    2.5229 S   0  0  0  0  0  0  0  0  0  0  0  0
   -2.3967    5.3651    2.1759 C   0  0  0  0  0  0  0  0  0  0  0  0
   -3.0918    5.8366    2.7214 H   0  0  0  0  0  0  0  0  0  0  0  0
   -1.4927    5.7267    2.4067 H   0  0  0  0  0  0  0  0  0  0  0  0
   -2.5772    5.5216    1.2034 H   0  0  0  0  0  0  0  0  0  0  0  0
  1  5  1  0
  5  8  1  0
  1  2  1  0
  1  3  1  0
  1  4  1  0
  5  6  1  0
  5  7  1  0
  8  9  1  0
  8 10  1  0
  8 11  1  0
 12 16  1  0
 16 17  1  0
 12 13  1  0
 12 14  1  0
 12 15  1  0
 17 18  1  0
 17 19  1  0
 17 20  1  0
M  CHG  1   8   1
M  END
>  <PDB_ID>  (1742) 
pdb6pta

>  <RESIDUE_NAME>  (1742) 
LYS   MET

>  <FRAG_NAME>  (1742) 
ETAM   MSM

>  <FRAG_ATOM_NUM>  (1742) 
fragi: 11  fragj: 9

>  <atom.prop.CHAIN_ID>  (1742) 
A A A A A A A A A A A Z Z Z Z Z Z Z Z Z

>  <atom.prop.IS_HEAVY_ATOM>  (1742) 
1 0 0 0 1 0 0 1 0 0 0 1 0 0 0 1 1 0 0 0

>  <DIFUSE_FUNC_ATOM>  (1742) 
n/a

>  <FINAL_SINGLE_POINT_ENERGY>  (1742) 
0

>  <NONCOV_INTER_ENERGY_QM>  (1742) 
0

>  <FF_Energy>  (1742) 
-4.56

>  <QM_Energy>  (1742) 
-10.14

>  <source>  (1742) 
ETAM_MSM

>  <Index>  (1742) 
11149

$$$$
ETAM-pdb5lqd-C-LYS-368:MSM-pdb5lqd-C-MET-363
     RDKit          3D

 20 18  0  0  0  0  0  0  0  0999 V2000
    1.2271    0.8884   -0.0000 C   0  0  0  0  0  0  0  0  0  0  0  0
    1.2421    1.4095    0.8406 H   0  0  0  0  0  0  0  0  0  0  0  0
    1.1907    1.4809   -0.7900 H   0  0  0  0  0  0  0  0  0  0  0  0
    2.1258    0.2742   -0.0551 H   0  0  0  0  0  0  0  0  0  0  0  0
    0.0000    0.0000    0.0000 C   0  0  0  0  0  0  0  0  0  0  0  0
    0.0219   -0.5808   -0.8164 H   0  0  0  0  0  0  0  0  0  0  0  0
    0.0215   -0.5812    0.8167 H   0  0  0  0  0  0  0  0  0  0  0  0
   -1.2271    0.8069   -0.0000 N   0  0  0  0  0  4  0  0  0  0  0  0
   -1.7428    0.6441   -0.8445 H   0  0  0  0  0  0  0  0  0  0  0  0
   -1.7983    0.5587    0.7856 H   0  0  0  0  0  0  0  0  0  0  0  0
   -0.9952    1.7813    0.0589 H   0  0  0  0  0  0  0  0  0  0  0  0
   -1.3866    1.9443    4.4220 C   0  0  0  0  0  0  0  0  0  0  0  0
   -1.7943    2.6844    3.8216 H   0  0  0  0  0  0  0  0  0  0  0  0
   -0.4147    2.2635    4.5869 H   0  0  0  0  0  0  0  0  0  0  0  0
   -1.9117    1.9613    5.3771 H   0  0  0  0  0  0  0  0  0  0  0  0
   -1.3937    0.3491    3.5575 S   0  0  0  0  0  0  0  0  0  0  0  0
   -3.1320    0.1231    3.1929 C   0  0  0  0  0  0  0  0  0  0  0  0
   -3.2374   -0.2203    2.2586 H   0  0  0  0  0  0  0  0  0  0  0  0
   -3.5271   -0.5361    3.8339 H   0  0  0  0  0  0  0  0  0  0  0  0
   -3.6097    0.9981    3.2803 H   0  0  0  0  0  0  0  0  0  0  0  0
  1  5  1  0
  5  8  1  0
  1  2  1  0
  1  3  1  0
  1  4  1  0
  5  6  1  0
  5  7  1  0
  8  9  1  0
  8 10  1  0
  8 11  1  0
 12 16  1  0
 16 17  1  0
 12 13  1  0
 12 14  1  0
 12 15  1  0
 17 18  1  0
 17 19  1  0
 17 20  1  0
M  CHG  1   8   1
M  END
>  <PDB_ID>  (1743) 
pdb5lqd

>  <RESIDUE_NAME>  (1743) 
LYS   MET

>  <FRAG_NAME>  (1743) 
ETAM   MSM

>  <FRAG_ATOM_NUM>  (1743) 
fragi: 11  fragj: 9

>  <atom.prop.CHAIN_ID>  (1743) 
A A A A A A A A A A A Z Z Z Z Z Z Z Z Z

>  <atom.prop.IS_HEAVY_ATOM>  (1743) 
1 0 0 0 1 0 0 1 0 0 0 1 0 0 0 1 1 0 0 0

>  <DIFUSE_FUNC_ATOM>  (1743) 
n/a

>  <FINAL_SINGLE_POINT_ENERGY>  (1743) 
0

>  <NONCOV_INTER_ENERGY_QM>  (1743) 
0

>  <FF_Energy>  (1743) 
-4.32

>  <QM_Energy>  (1743) 
-11.25

>  <source>  (1743) 
ETAM_MSM

>  <Index>  (1743) 
11152

$$$$
ETAM-pdb5m2y-A-LYS-361:MSM-pdb5m2y-A-MET-353
     RDKit          3D

 20 18  0  0  0  0  0  0  0  0999 V2000
    1.2178    0.8855    0.0000 C   0  0  0  0  0  0  0  0  0  0  0  0
    1.1465    1.5300    0.7736 H   0  0  0  0  0  0  0  0  0  0  0  0
    1.2248    1.4216   -0.8545 H   0  0  0  0  0  0  0  0  0  0  0  0
    2.1620    0.3471    0.0823 H   0  0  0  0  0  0  0  0  0  0  0  0
    0.0000    0.0000    0.0000 C   0  0  0  0  0  0  0  0  0  0  0  0
    0.0111   -0.5737   -0.8165 H   0  0  0  0  0  0  0  0  0  0  0  0
    0.0101   -0.5736    0.8166 H   0  0  0  0  0  0  0  0  0  0  0  0
   -1.2178    0.8320   -0.0000 N   0  0  0  0  0  4  0  0  0  0  0  0
   -1.2666    1.3609   -0.8491 H   0  0  0  0  0  0  0  0  0  0  0  0
   -2.0271    0.2462    0.0696 H   0  0  0  0  0  0  0  0  0  0  0  0
   -1.1975    1.4607    0.7793 H   0  0  0  0  0  0  0  0  0  0  0  0
    0.6544    4.5358    4.5082 C   0  0  0  0  0  0  0  0  0  0  0  0
    0.7570    3.7958    5.2023 H   0  0  0  0  0  0  0  0  0  0  0  0
   -0.2981    4.4632    4.1502 H   0  0  0  0  0  0  0  0  0  0  0  0
    0.7785    5.5018    4.9978 H   0  0  0  0  0  0  0  0  0  0  0  0
    1.8454    4.3428    3.1917 S   0  0  0  0  0  0  0  0  0  0  0  0
    1.1236    3.1171    2.3153 C   0  0  0  0  0  0  0  0  0  0  0  0
    1.0084    2.2578    2.8580 H   0  0  0  0  0  0  0  0  0  0  0  0
    0.1895    3.3666    1.9812 H   0  0  0  0  0  0  0  0  0  0  0  0
    1.6597    2.8557    1.4847 H   0  0  0  0  0  0  0  0  0  0  0  0
  1  5  1  0
  5  8  1  0
  1  2  1  0
  1  3  1  0
  1  4  1  0
  5  6  1  0
  5  7  1  0
  8  9  1  0
  8 10  1  0
  8 11  1  0
 12 16  1  0
 16 17  1  0
 12 13  1  0
 12 14  1  0
 12 15  1  0
 17 18  1  0
 17 19  1  0
 17 20  1  0
M  CHG  1   8   1
M  END
>  <PDB_ID>  (1744) 
pdb5m2y

>  <RESIDUE_NAME>  (1744) 
LYS   MET

>  <FRAG_NAME>  (1744) 
ETAM   MSM

>  <FRAG_ATOM_NUM>  (1744) 
fragi: 11  fragj: 9

>  <atom.prop.CHAIN_ID>  (1744) 
A A A A A A A A A A A Z Z Z Z Z Z Z Z Z

>  <atom.prop.IS_HEAVY_ATOM>  (1744) 
1 0 0 0 1 0 0 1 0 0 0 1 0 0 0 1 1 0 0 0

>  <DIFUSE_FUNC_ATOM>  (1744) 
n/a

>  <FINAL_SINGLE_POINT_ENERGY>  (1744) 
0

>  <NONCOV_INTER_ENERGY_QM>  (1744) 
0

>  <FF_Energy>  (1744) 
20.35

>  <QM_Energy>  (1744) 
4.8

>  <source>  (1744) 
ETAM_MSM

>  <Index>  (1744) 
11158

$$$$
ETAM-pdb5m2y-B-LYS-361:MSM-pdb5m2y-B-MET-353
     RDKit          3D

 20 18  0  0  0  0  0  0  0  0999 V2000
    1.2591    0.8652   -0.0000 C   0  0  0  0  0  0  0  0  0  0  0  0
    2.0238    0.2974   -0.3485 H   0  0  0  0  0  0  0  0  0  0  0  0
    1.4723    1.0996    0.9631 H   0  0  0  0  0  0  0  0  0  0  0  0
    1.2026    1.7831   -0.5852 H   0  0  0  0  0  0  0  0  0  0  0  0
    0.0000    0.0000    0.0000 C   0  0  0  0  0  0  0  0  0  0  0  0
    0.0141   -0.5903   -0.8161 H   0  0  0  0  0  0  0  0  0  0  0  0
    0.0142   -0.5904    0.8159 H   0  0  0  0  0  0  0  0  0  0  0  0
   -1.2591    0.8012   -0.0000 N   0  0  0  0  0  4  0  0  0  0  0  0
   -1.8856    0.4300   -0.6831 H   0  0  0  0  0  0  0  0  0  0  0  0
   -1.6808    0.7525    0.9047 H   0  0  0  0  0  0  0  0  0  0  0  0
   -1.0447    1.7521   -0.2208 H   0  0  0  0  0  0  0  0  0  0  0  0
    5.6634   -2.3059   -1.8993 C   0  0  0  0  0  0  0  0  0  0  0  0
    5.2601   -2.3383   -2.8287 H   0  0  0  0  0  0  0  0  0  0  0  0
    5.1679   -2.9856   -1.3333 H   0  0  0  0  0  0  0  0  0  0  0  0
    6.7179   -2.5766   -1.9521 H   0  0  0  0  0  0  0  0  0  0  0  0
    5.5209   -0.6731   -1.2016 S   0  0  0  0  0  0  0  0  0  0  0  0
    3.9051   -0.6560   -0.8890 C   0  0  0  0  0  0  0  0  0  0  0  0
    3.6099   -1.3841   -0.2265 H   0  0  0  0  0  0  0  0  0  0  0  0
    3.5769    0.2289   -0.4819 H   0  0  0  0  0  0  0  0  0  0  0  0
    3.3254   -0.8002   -1.7253 H   0  0  0  0  0  0  0  0  0  0  0  0
  1  5  1  0
  5  8  1  0
  1  2  1  0
  1  3  1  0
  1  4  1  0
  5  6  1  0
  5  7  1  0
  8  9  1  0
  8 10  1  0
  8 11  1  0
 12 16  1  0
 16 17  1  0
 12 13  1  0
 12 14  1  0
 12 15  1  0
 17 18  1  0
 17 19  1  0
 17 20  1  0
M  CHG  1   8   1
M  END
>  <PDB_ID>  (1745) 
pdb5m2y

>  <RESIDUE_NAME>  (1745) 
LYS   MET

>  <FRAG_NAME>  (1745) 
ETAM   MSM

>  <FRAG_ATOM_NUM>  (1745) 
fragi: 11  fragj: 9

>  <atom.prop.CHAIN_ID>  (1745) 
A A A A A A A A A A A Z Z Z Z Z Z Z Z Z

>  <atom.prop.IS_HEAVY_ATOM>  (1745) 
1 0 0 0 1 0 0 1 0 0 0 1 0 0 0 1 1 0 0 0

>  <DIFUSE_FUNC_ATOM>  (1745) 
n/a

>  <FINAL_SINGLE_POINT_ENERGY>  (1745) 
0

>  <NONCOV_INTER_ENERGY_QM>  (1745) 
0

>  <FF_Energy>  (1745) 
24.74

>  <QM_Energy>  (1745) 
5.51

>  <source>  (1745) 
ETAM_MSM

>  <Index>  (1745) 
11163

$$$$
ETAM-pdb6q1y-A-LYS-165:MSM-pdb6q1y-A-MET-161
     RDKit          3D

 20 18  0  0  0  0  0  0  0  0999 V2000
    1.2601    0.8763   -0.0000 C   0  0  0  0  0  0  0  0  0  0  0  0
    2.0398    0.3037    0.2209 H   0  0  0  0  0  0  0  0  0  0  0  0
    1.1450    1.5903    0.6790 H   0  0  0  0  0  0  0  0  0  0  0  0
    1.4266    1.3381   -0.9732 H   0  0  0  0  0  0  0  0  0  0  0  0
    0.0000    0.0000    0.0000 C   0  0  0  0  0  0  0  0  0  0  0  0
    0.0155   -0.5844   -0.8160 H   0  0  0  0  0  0  0  0  0  0  0  0
    0.0150   -0.5839    0.8163 H   0  0  0  0  0  0  0  0  0  0  0  0
   -1.2601    0.8092    0.0000 N   0  0  0  0  0  4  0  0  0  0  0  0
   -1.1348    1.6093    0.5826 H   0  0  0  0  0  0  0  0  0  0  0  0
   -1.4628    1.0982   -0.9333 H   0  0  0  0  0  0  0  0  0  0  0  0
   -2.0078    0.2497    0.3509 H   0  0  0  0  0  0  0  0  0  0  0  0
   -2.2921    3.0652   -3.7797 C   0  0  0  0  0  0  0  0  0  0  0  0
   -3.0736    2.4169   -4.0445 H   0  0  0  0  0  0  0  0  0  0  0  0
   -1.4433    2.5090   -4.0482 H   0  0  0  0  0  0  0  0  0  0  0  0
   -2.3432    3.9269   -4.4451 H   0  0  0  0  0  0  0  0  0  0  0  0
   -2.3042    3.3582   -1.9739 S   0  0  0  0  0  0  0  0  0  0  0  0
   -3.7846    4.3003   -1.7799 C   0  0  0  0  0  0  0  0  0  0  0  0
   -4.1012    4.6404   -2.6720 H   0  0  0  0  0  0  0  0  0  0  0  0
   -4.5091    3.7318   -1.3774 H   0  0  0  0  0  0  0  0  0  0  0  0
   -3.6202    5.0876   -1.1758 H   0  0  0  0  0  0  0  0  0  0  0  0
  1  5  1  0
  5  8  1  0
  1  2  1  0
  1  3  1  0
  1  4  1  0
  5  6  1  0
  5  7  1  0
  8  9  1  0
  8 10  1  0
  8 11  1  0
 12 16  1  0
 16 17  1  0
 12 13  1  0
 12 14  1  0
 12 15  1  0
 17 18  1  0
 17 19  1  0
 17 20  1  0
M  CHG  1   8   1
M  END
>  <PDB_ID>  (1746) 
pdb6q1y

>  <RESIDUE_NAME>  (1746) 
LYS   MET

>  <FRAG_NAME>  (1746) 
ETAM   MSM

>  <FRAG_ATOM_NUM>  (1746) 
fragi: 11  fragj: 9

>  <atom.prop.CHAIN_ID>  (1746) 
A A A A A A A A A A A Z Z Z Z Z Z Z Z Z

>  <atom.prop.IS_HEAVY_ATOM>  (1746) 
1 0 0 0 1 0 0 1 0 0 0 1 0 0 0 1 1 0 0 0

>  <DIFUSE_FUNC_ATOM>  (1746) 
n/a

>  <FINAL_SINGLE_POINT_ENERGY>  (1746) 
0

>  <NONCOV_INTER_ENERGY_QM>  (1746) 
0

>  <FF_Energy>  (1746) 
-5.44

>  <QM_Energy>  (1746) 
-13.47

>  <source>  (1746) 
ETAM_MSM

>  <Index>  (1746) 
11166

$$$$
ETAM-pdb5m9f-A-LYS-392:MSM-pdb5m9f-A-MET-457
     RDKit          3D

 20 18  0  0  0  0  0  0  0  0999 V2000
    1.2592    0.8625    0.0000 C   0  0  0  0  0  0  0  0  0  0  0  0
    1.2534    1.4265    0.8265 H   0  0  0  0  0  0  0  0  0  0  0  0
    1.2346    1.4536   -0.8068 H   0  0  0  0  0  0  0  0  0  0  0  0
    2.1766    0.2741   -0.0201 H   0  0  0  0  0  0  0  0  0  0  0  0
    0.0000    0.0000    0.0000 C   0  0  0  0  0  0  0  0  0  0  0  0
    0.0006   -0.5809   -0.8162 H   0  0  0  0  0  0  0  0  0  0  0  0
    0.0007   -0.5804    0.8164 H   0  0  0  0  0  0  0  0  0  0  0  0
   -1.2592    0.8327   -0.0000 N   0  0  0  0  0  4  0  0  0  0  0  0
   -1.8938    0.4556    0.6683 H   0  0  0  0  0  0  0  0  0  0  0  0
   -1.0245    1.7700    0.2415 H   0  0  0  0  0  0  0  0  0  0  0  0
   -1.6630    0.8038   -0.9106 H   0  0  0  0  0  0  0  0  0  0  0  0
   -4.4743   -2.4758    0.1476 C   0  0  0  0  0  0  0  0  0  0  0  0
   -4.8876   -1.8284    0.8418 H   0  0  0  0  0  0  0  0  0  0  0  0
   -3.8812   -3.1073    0.7137 H   0  0  0  0  0  0  0  0  0  0  0  0
   -5.2817   -3.0677   -0.2834 H   0  0  0  0  0  0  0  0  0  0  0  0
   -3.4752   -1.5689   -1.0521 S   0  0  0  0  0  0  0  0  0  0  0  0
   -4.5986   -0.2213   -1.4456 C   0  0  0  0  0  0  0  0  0  0  0  0
   -5.2828   -0.1364   -0.7210 H   0  0  0  0  0  0  0  0  0  0  0  0
   -4.0817    0.6312   -1.5188 H   0  0  0  0  0  0  0  0  0  0  0  0
   -5.0548   -0.4116   -2.3153 H   0  0  0  0  0  0  0  0  0  0  0  0
  1  5  1  0
  5  8  1  0
  1  2  1  0
  1  3  1  0
  1  4  1  0
  5  6  1  0
  5  7  1  0
  8  9  1  0
  8 10  1  0
  8 11  1  0
 12 16  1  0
 16 17  1  0
 12 13  1  0
 12 14  1  0
 12 15  1  0
 17 18  1  0
 17 19  1  0
 17 20  1  0
M  CHG  1   8   1
M  END
>  <PDB_ID>  (1747) 
pdb5m9f

>  <RESIDUE_NAME>  (1747) 
LYS   MET

>  <FRAG_NAME>  (1747) 
ETAM   MSM

>  <FRAG_ATOM_NUM>  (1747) 
fragi: 11  fragj: 9

>  <atom.prop.CHAIN_ID>  (1747) 
A A A A A A A A A A A Z Z Z Z Z Z Z Z Z

>  <atom.prop.IS_HEAVY_ATOM>  (1747) 
1 0 0 0 1 0 0 1 0 0 0 1 0 0 0 1 1 0 0 0

>  <DIFUSE_FUNC_ATOM>  (1747) 
n/a

>  <FINAL_SINGLE_POINT_ENERGY>  (1747) 
0

>  <NONCOV_INTER_ENERGY_QM>  (1747) 
0

>  <FF_Energy>  (1747) 
-4.47

>  <QM_Energy>  (1747) 
-11.12

>  <source>  (1747) 
ETAM_MSM

>  <Index>  (1747) 
11188

$$$$
ETAM-pdb6q93-D-LYS-171:MSM-pdb6q93-A-MET-61
     RDKit          3D

 20 18  0  0  0  0  0  0  0  0999 V2000
    1.2767    0.8424    0.0000 C   0  0  0  0  0  0  0  0  0  0  0  0
    1.0847    1.7204    0.4159 H   0  0  0  0  0  0  0  0  0  0  0  0
    1.5929    0.9492   -0.9317 H   0  0  0  0  0  0  0  0  0  0  0  0
    2.0723    0.3665    0.5733 H   0  0  0  0  0  0  0  0  0  0  0  0
    0.0000    0.0000    0.0000 C   0  0  0  0  0  0  0  0  0  0  0  0
    0.0078   -0.6008   -0.8162 H   0  0  0  0  0  0  0  0  0  0  0  0
    0.0078   -0.6003    0.8160 H   0  0  0  0  0  0  0  0  0  0  0  0
   -1.2767    0.7944   -0.0000 N   0  0  0  0  0  4  0  0  0  0  0  0
   -1.3565    1.2788    0.8676 H   0  0  0  0  0  0  0  0  0  0  0  0
   -1.2523    1.4466   -0.7533 H   0  0  0  0  0  0  0  0  0  0  0  0
   -2.0466    0.1706   -0.1140 H   0  0  0  0  0  0  0  0  0  0  0  0
   -4.5177   -0.0557   -3.0096 C   0  0  0  0  0  0  0  0  0  0  0  0
   -5.3688    0.4404   -3.2942 H   0  0  0  0  0  0  0  0  0  0  0  0
   -4.7107   -0.4153   -2.0684 H   0  0  0  0  0  0  0  0  0  0  0  0
   -4.3905   -0.9096   -3.6750 H   0  0  0  0  0  0  0  0  0  0  0  0
   -3.0944    1.0545   -2.9987 S   0  0  0  0  0  0  0  0  0  0  0  0
   -3.7538    2.4942   -3.9362 C   0  0  0  0  0  0  0  0  0  0  0  0
   -4.7312    2.5529   -3.7699 H   0  0  0  0  0  0  0  0  0  0  0  0
   -3.2938    3.3134   -3.6136 H   0  0  0  0  0  0  0  0  0  0  0  0
   -3.5712    2.3471   -4.9013 H   0  0  0  0  0  0  0  0  0  0  0  0
  1  5  1  0
  5  8  1  0
  1  2  1  0
  1  3  1  0
  1  4  1  0
  5  6  1  0
  5  7  1  0
  8  9  1  0
  8 10  1  0
  8 11  1  0
 12 16  1  0
 16 17  1  0
 12 13  1  0
 12 14  1  0
 12 15  1  0
 17 18  1  0
 17 19  1  0
 17 20  1  0
M  CHG  1   8   1
M  END
>  <PDB_ID>  (1748) 
pdb6q93

>  <RESIDUE_NAME>  (1748) 
LYS   MET

>  <FRAG_NAME>  (1748) 
ETAM   MSM

>  <FRAG_ATOM_NUM>  (1748) 
fragi: 11  fragj: 9

>  <atom.prop.CHAIN_ID>  (1748) 
A A A A A A A A A A A Z Z Z Z Z Z Z Z Z

>  <atom.prop.IS_HEAVY_ATOM>  (1748) 
1 0 0 0 1 0 0 1 0 0 0 1 0 0 0 1 1 0 0 0

>  <DIFUSE_FUNC_ATOM>  (1748) 
n/a

>  <FINAL_SINGLE_POINT_ENERGY>  (1748) 
0

>  <NONCOV_INTER_ENERGY_QM>  (1748) 
0

>  <FF_Energy>  (1748) 
-5.09

>  <QM_Energy>  (1748) 
-12.43

>  <source>  (1748) 
ETAM_MSM

>  <Index>  (1748) 
11190

$$$$
ETAM-pdb6q93-F-LYS-42:MSM-pdb6q93-E-MET-157
     RDKit          3D

 20 18  0  0  0  0  0  0  0  0999 V2000
    1.2342    0.8702    0.0000 C   0  0  0  0  0  0  0  0  0  0  0  0
    1.6090    0.8946    0.9200 H   0  0  0  0  0  0  0  0  0  0  0  0
    0.9824    1.7827   -0.2991 H   0  0  0  0  0  0  0  0  0  0  0  0
    1.9878    0.4696   -0.6780 H   0  0  0  0  0  0  0  0  0  0  0  0
    0.0000    0.0000    0.0000 C   0  0  0  0  0  0  0  0  0  0  0  0
    0.0089   -0.5824   -0.8159 H   0  0  0  0  0  0  0  0  0  0  0  0
    0.0090   -0.5823    0.8162 H   0  0  0  0  0  0  0  0  0  0  0  0
   -1.2342    0.8212   -0.0000 N   0  0  0  0  0  4  0  0  0  0  0  0
   -1.6932    0.7360   -0.8849 H   0  0  0  0  0  0  0  0  0  0  0  0
   -1.8474    0.5036    0.7247 H   0  0  0  0  0  0  0  0  0  0  0  0
   -0.9979    1.7804    0.1608 H   0  0  0  0  0  0  0  0  0  0  0  0
   -0.0368    1.0729    5.0846 C   0  0  0  0  0  0  0  0  0  0  0  0
   -0.9232    0.9236    4.5580 H   0  0  0  0  0  0  0  0  0  0  0  0
   -0.1822    2.0013    5.5348 H   0  0  0  0  0  0  0  0  0  0  0  0
    0.0137    0.3226    5.8735 H   0  0  0  0  0  0  0  0  0  0  0  0
    1.3733    1.1415    3.9390 S   0  0  0  0  0  0  0  0  0  0  0  0
    0.9768   -0.1512    2.9321 C   0  0  0  0  0  0  0  0  0  0  0  0
    1.7219   -0.3717    2.2710 H   0  0  0  0  0  0  0  0  0  0  0  0
    0.7920   -1.0079    3.4544 H   0  0  0  0  0  0  0  0  0  0  0  0
    0.1421    0.0324    2.3753 H   0  0  0  0  0  0  0  0  0  0  0  0
  1  5  1  0
  5  8  1  0
  1  2  1  0
  1  3  1  0
  1  4  1  0
  5  6  1  0
  5  7  1  0
  8  9  1  0
  8 10  1  0
  8 11  1  0
 12 16  1  0
 16 17  1  0
 12 13  1  0
 12 14  1  0
 12 15  1  0
 17 18  1  0
 17 19  1  0
 17 20  1  0
M  CHG  1   8   1
M  END
>  <PDB_ID>  (1749) 
pdb6q93

>  <RESIDUE_NAME>  (1749) 
LYS   MET

>  <FRAG_NAME>  (1749) 
ETAM   MSM

>  <FRAG_ATOM_NUM>  (1749) 
fragi: 11  fragj: 9

>  <atom.prop.CHAIN_ID>  (1749) 
A A A A A A A A A A A Z Z Z Z Z Z Z Z Z

>  <atom.prop.IS_HEAVY_ATOM>  (1749) 
1 0 0 0 1 0 0 1 0 0 0 1 0 0 0 1 1 0 0 0

>  <DIFUSE_FUNC_ATOM>  (1749) 
n/a

>  <FINAL_SINGLE_POINT_ENERGY>  (1749) 
0

>  <NONCOV_INTER_ENERGY_QM>  (1749) 
0

>  <FF_Energy>  (1749) 
18.33

>  <QM_Energy>  (1749) 
4.1

>  <source>  (1749) 
ETAM_MSM

>  <Index>  (1749) 
11195

$$$$
ETAM-pdb6q93-G-LYS-171:MSM-pdb6q93-F-MET-61
     RDKit          3D

 20 18  0  0  0  0  0  0  0  0999 V2000
    1.2568    0.8316   -0.0000 C   0  0  0  0  0  0  0  0  0  0  0  0
    1.1520    1.5777   -0.6451 H   0  0  0  0  0  0  0  0  0  0  0  0
    2.0258    0.2567   -0.2478 H   0  0  0  0  0  0  0  0  0  0  0  0
    1.4380    1.2497    0.9902 H   0  0  0  0  0  0  0  0  0  0  0  0
    0.0000    0.0000    0.0000 C   0  0  0  0  0  0  0  0  0  0  0  0
   -0.0026   -0.5992   -0.8164 H   0  0  0  0  0  0  0  0  0  0  0  0
   -0.0027   -0.5994    0.8163 H   0  0  0  0  0  0  0  0  0  0  0  0
   -1.2568    0.8091    0.0000 N   0  0  0  0  0  4  0  0  0  0  0  0
   -1.0875    1.6784    0.4617 H   0  0  0  0  0  0  0  0  0  0  0  0
   -1.5389    0.9776   -0.9426 H   0  0  0  0  0  0  0  0  0  0  0  0
   -1.9719    0.3053    0.4813 H   0  0  0  0  0  0  0  0  0  0  0  0
   -3.9618   -2.5878   -3.4242 C   0  0  0  0  0  0  0  0  0  0  0  0
   -4.4624   -2.6000   -4.3245 H   0  0  0  0  0  0  0  0  0  0  0  0
   -4.5711   -2.0516   -2.7905 H   0  0  0  0  0  0  0  0  0  0  0  0
   -3.9062   -3.6116   -3.0543 H   0  0  0  0  0  0  0  0  0  0  0  0
   -2.3496   -1.7767   -3.6004 S   0  0  0  0  0  0  0  0  0  0  0  0
   -1.6208   -2.0787   -1.9227 C   0  0  0  0  0  0  0  0  0  0  0  0
   -1.5662   -3.0588   -1.7857 H   0  0  0  0  0  0  0  0  0  0  0  0
   -0.7200   -1.6671   -1.9036 H   0  0  0  0  0  0  0  0  0  0  0  0
   -2.2172   -1.6586   -1.2519 H   0  0  0  0  0  0  0  0  0  0  0  0
  1  5  1  0
  5  8  1  0
  1  2  1  0
  1  3  1  0
  1  4  1  0
  5  6  1  0
  5  7  1  0
  8  9  1  0
  8 10  1  0
  8 11  1  0
 12 16  1  0
 16 17  1  0
 12 13  1  0
 12 14  1  0
 12 15  1  0
 17 18  1  0
 17 19  1  0
 17 20  1  0
M  CHG  1   8   1
M  END
>  <PDB_ID>  (1750) 
pdb6q93

>  <RESIDUE_NAME>  (1750) 
LYS   MET

>  <FRAG_NAME>  (1750) 
ETAM   MSM

>  <FRAG_ATOM_NUM>  (1750) 
fragi: 11  fragj: 9

>  <atom.prop.CHAIN_ID>  (1750) 
A A A A A A A A A A A Z Z Z Z Z Z Z Z Z

>  <atom.prop.IS_HEAVY_ATOM>  (1750) 
1 0 0 0 1 0 0 1 0 0 0 1 0 0 0 1 1 0 0 0

>  <DIFUSE_FUNC_ATOM>  (1750) 
n/a

>  <FINAL_SINGLE_POINT_ENERGY>  (1750) 
0

>  <NONCOV_INTER_ENERGY_QM>  (1750) 
0

>  <FF_Energy>  (1750) 
8.54

>  <QM_Energy>  (1750) 
0.43

>  <source>  (1750) 
ETAM_MSM

>  <Index>  (1750) 
11196

$$$$
ETAM-pdb6q93-E-LYS-42:MSM-pdb6q93-F-MET-157
     RDKit          3D

 20 18  0  0  0  0  0  0  0  0999 V2000
    1.2335    0.8820    0.0000 C   0  0  0  0  0  0  0  0  0  0  0  0
    1.6137    0.8905    0.9228 H   0  0  0  0  0  0  0  0  0  0  0  0
    0.9590    1.8051   -0.2613 H   0  0  0  0  0  0  0  0  0  0  0  0
    1.9883    0.5181   -0.6971 H   0  0  0  0  0  0  0  0  0  0  0  0
    0.0000    0.0000    0.0000 C   0  0  0  0  0  0  0  0  0  0  0  0
    0.0123   -0.5779   -0.8159 H   0  0  0  0  0  0  0  0  0  0  0  0
    0.0114   -0.5774    0.8162 H   0  0  0  0  0  0  0  0  0  0  0  0
   -1.2335    0.8241   -0.0000 N   0  0  0  0  0  4  0  0  0  0  0  0
   -1.6973    0.7304    0.8816 H   0  0  0  0  0  0  0  0  0  0  0  0
   -0.9944    1.7834   -0.1500 H   0  0  0  0  0  0  0  0  0  0  0  0
   -1.8425    0.5148   -0.7310 H   0  0  0  0  0  0  0  0  0  0  0  0
    0.4872    0.5274    5.0606 C   0  0  0  0  0  0  0  0  0  0  0  0
   -0.4055    0.2888    4.5918 H   0  0  0  0  0  0  0  0  0  0  0  0
    0.3099    1.4606    5.4759 H   0  0  0  0  0  0  0  0  0  0  0  0
    0.6320   -0.1786    5.8783 H   0  0  0  0  0  0  0  0  0  0  0  0
    1.8401    0.6119    3.8531 S   0  0  0  0  0  0  0  0  0  0  0  0
    1.4889   -0.7542    2.9082 C   0  0  0  0  0  0  0  0  0  0  0  0
    2.2937   -1.3695    2.8115 H   0  0  0  0  0  0  0  0  0  0  0  0
    0.7382   -1.3137    3.3081 H   0  0  0  0  0  0  0  0  0  0  0  0
    1.1967   -0.5030    1.9661 H   0  0  0  0  0  0  0  0  0  0  0  0
  1  5  1  0
  5  8  1  0
  1  2  1  0
  1  3  1  0
  1  4  1  0
  5  6  1  0
  5  7  1  0
  8  9  1  0
  8 10  1  0
  8 11  1  0
 12 16  1  0
 16 17  1  0
 12 13  1  0
 12 14  1  0
 12 15  1  0
 17 18  1  0
 17 19  1  0
 17 20  1  0
M  CHG  1   8   1
M  END
>  <PDB_ID>  (1751) 
pdb6q93

>  <RESIDUE_NAME>  (1751) 
LYS   MET

>  <FRAG_NAME>  (1751) 
ETAM   MSM

>  <FRAG_ATOM_NUM>  (1751) 
fragi: 11  fragj: 9

>  <atom.prop.CHAIN_ID>  (1751) 
A A A A A A A A A A A Z Z Z Z Z Z Z Z Z

>  <atom.prop.IS_HEAVY_ATOM>  (1751) 
1 0 0 0 1 0 0 1 0 0 0 1 0 0 0 1 1 0 0 0

>  <DIFUSE_FUNC_ATOM>  (1751) 
n/a

>  <FINAL_SINGLE_POINT_ENERGY>  (1751) 
0

>  <NONCOV_INTER_ENERGY_QM>  (1751) 
0

>  <FF_Energy>  (1751) 
15.95

>  <QM_Energy>  (1751) 
1.96

>  <source>  (1751) 
ETAM_MSM

>  <Index>  (1751) 
11197

$$$$
ETAM-pdb6q93-H-LYS-42:MSM-pdb6q93-G-MET-157
     RDKit          3D

 20 18  0  0  0  0  0  0  0  0999 V2000
    1.2024    0.8937    0.0000 C   0  0  0  0  0  0  0  0  0  0  0  0
    1.6252    0.8605    0.9030 H   0  0  0  0  0  0  0  0  0  0  0  0
    0.9081    1.8243   -0.2036 H   0  0  0  0  0  0  0  0  0  0  0  0
    1.9228    0.5681   -0.7503 H   0  0  0  0  0  0  0  0  0  0  0  0
    0.0000    0.0000    0.0000 C   0  0  0  0  0  0  0  0  0  0  0  0
    0.0192   -0.5743   -0.8158 H   0  0  0  0  0  0  0  0  0  0  0  0
    0.0183   -0.5748    0.8165 H   0  0  0  0  0  0  0  0  0  0  0  0
   -1.2024    0.8205   -0.0000 N   0  0  0  0  0  4  0  0  0  0  0  0
   -1.0621    1.6432   -0.5600 H   0  0  0  0  0  0  0  0  0  0  0  0
   -1.9770    0.3029   -0.3772 H   0  0  0  0  0  0  0  0  0  0  0  0
   -1.4294    1.1043    0.9369 H   0  0  0  0  0  0  0  0  0  0  0  0
    0.0818    0.7251    5.0862 C   0  0  0  0  0  0  0  0  0  0  0  0
   -0.7720    0.4734    4.5551 H   0  0  0  0  0  0  0  0  0  0  0  0
   -0.1650    1.6210    5.5450 H   0  0  0  0  0  0  0  0  0  0  0  0
    0.2206   -0.0227    5.8669 H   0  0  0  0  0  0  0  0  0  0  0  0
    1.4821    0.9293    3.9908 S   0  0  0  0  0  0  0  0  0  0  0  0
    1.2123   -0.3382    2.9654 C   0  0  0  0  0  0  0  0  0  0  0  0
    1.5840   -1.2288    3.3153 H   0  0  0  0  0  0  0  0  0  0  0  0
    0.2163   -0.5095    2.7859 H   0  0  0  0  0  0  0  0  0  0  0  0
    1.6386   -0.2095    2.0406 H   0  0  0  0  0  0  0  0  0  0  0  0
  1  5  1  0
  5  8  1  0
  1  2  1  0
  1  3  1  0
  1  4  1  0
  5  6  1  0
  5  7  1  0
  8  9  1  0
  8 10  1  0
  8 11  1  0
 12 16  1  0
 16 17  1  0
 12 13  1  0
 12 14  1  0
 12 15  1  0
 17 18  1  0
 17 19  1  0
 17 20  1  0
M  CHG  1   8   1
M  END
>  <PDB_ID>  (1752) 
pdb6q93

>  <RESIDUE_NAME>  (1752) 
LYS   MET

>  <FRAG_NAME>  (1752) 
ETAM   MSM

>  <FRAG_ATOM_NUM>  (1752) 
fragi: 11  fragj: 9

>  <atom.prop.CHAIN_ID>  (1752) 
A A A A A A A A A A A Z Z Z Z Z Z Z Z Z

>  <atom.prop.IS_HEAVY_ATOM>  (1752) 
1 0 0 0 1 0 0 1 0 0 0 1 0 0 0 1 1 0 0 0

>  <DIFUSE_FUNC_ATOM>  (1752) 
n/a

>  <FINAL_SINGLE_POINT_ENERGY>  (1752) 
0

>  <NONCOV_INTER_ENERGY_QM>  (1752) 
0

>  <FF_Energy>  (1752) 
22.3

>  <QM_Energy>  (1752) 
3.63

>  <source>  (1752) 
ETAM_MSM

>  <Index>  (1752) 
11198

$$$$
ETAM-pdb5m9f-B-LYS-392:MSM-pdb5m9f-B-MET-457
     RDKit          3D

 20 18  0  0  0  0  0  0  0  0999 V2000
    1.2393    0.8657    0.0000 C   0  0  0  0  0  0  0  0  0  0  0  0
    1.1790    1.5161    0.7479 H   0  0  0  0  0  0  0  0  0  0  0  0
    1.3014    1.3395   -0.8701 H   0  0  0  0  0  0  0  0  0  0  0  0
    2.1381    0.2639    0.1345 H   0  0  0  0  0  0  0  0  0  0  0  0
    0.0000    0.0000    0.0000 C   0  0  0  0  0  0  0  0  0  0  0  0
   -0.0225   -0.5586   -0.8158 H   0  0  0  0  0  0  0  0  0  0  0  0
   -0.0231   -0.5585    0.8164 H   0  0  0  0  0  0  0  0  0  0  0  0
   -1.2393    0.8954   -0.0000 N   0  0  0  0  0  4  0  0  0  0  0  0
   -2.0420    0.3159   -0.0767 H   0  0  0  0  0  0  0  0  0  0  0  0
   -1.2547    1.4058    0.8518 H   0  0  0  0  0  0  0  0  0  0  0  0
   -1.1782    1.5123   -0.7761 H   0  0  0  0  0  0  0  0  0  0  0  0
   -5.0445   -1.6142   -0.5214 C   0  0  0  0  0  0  0  0  0  0  0  0
   -5.6581   -1.2210    0.2126 H   0  0  0  0  0  0  0  0  0  0  0  0
   -4.3362   -2.1567    0.0022 H   0  0  0  0  0  0  0  0  0  0  0  0
   -5.6345   -2.3135   -1.1138 H   0  0  0  0  0  0  0  0  0  0  0  0
   -4.2538   -0.2831   -1.4695 S   0  0  0  0  0  0  0  0  0  0  0  0
   -3.3051   -1.1917   -2.6830 C   0  0  0  0  0  0  0  0  0  0  0  0
   -2.8492   -0.5510   -3.3034 H   0  0  0  0  0  0  0  0  0  0  0  0
   -2.6157   -1.7530   -2.2210 H   0  0  0  0  0  0  0  0  0  0  0  0
   -3.9149   -1.7855   -3.2118 H   0  0  0  0  0  0  0  0  0  0  0  0
  1  5  1  0
  5  8  1  0
  1  2  1  0
  1  3  1  0
  1  4  1  0
  5  6  1  0
  5  7  1  0
  8  9  1  0
  8 10  1  0
  8 11  1  0
 12 16  1  0
 16 17  1  0
 12 13  1  0
 12 14  1  0
 12 15  1  0
 17 18  1  0
 17 19  1  0
 17 20  1  0
M  CHG  1   8   1
M  END
>  <PDB_ID>  (1753) 
pdb5m9f

>  <RESIDUE_NAME>  (1753) 
LYS   MET

>  <FRAG_NAME>  (1753) 
ETAM   MSM

>  <FRAG_ATOM_NUM>  (1753) 
fragi: 11  fragj: 9

>  <atom.prop.CHAIN_ID>  (1753) 
A A A A A A A A A A A Z Z Z Z Z Z Z Z Z

>  <atom.prop.IS_HEAVY_ATOM>  (1753) 
1 0 0 0 1 0 0 1 0 0 0 1 0 0 0 1 1 0 0 0

>  <DIFUSE_FUNC_ATOM>  (1753) 
n/a

>  <FINAL_SINGLE_POINT_ENERGY>  (1753) 
0

>  <NONCOV_INTER_ENERGY_QM>  (1753) 
0

>  <FF_Energy>  (1753) 
-4.55

>  <QM_Energy>  (1753) 
-12.73

>  <source>  (1753) 
ETAM_MSM

>  <Index>  (1753) 
11204

$$$$
ETAM-pdb5m9f-C-LYS-392:MSM-pdb5m9f-C-MET-457
     RDKit          3D

 20 18  0  0  0  0  0  0  0  0999 V2000
    1.2573    0.8381    0.0000 C   0  0  0  0  0  0  0  0  0  0  0  0
    1.2176    1.4625    0.7720 H   0  0  0  0  0  0  0  0  0  0  0  0
    1.2976    1.3426   -0.8549 H   0  0  0  0  0  0  0  0  0  0  0  0
    2.1334    0.1960    0.0908 H   0  0  0  0  0  0  0  0  0  0  0  0
    0.0000    0.0000    0.0000 C   0  0  0  0  0  0  0  0  0  0  0  0
   -0.0067   -0.5909   -0.8166 H   0  0  0  0  0  0  0  0  0  0  0  0
   -0.0079   -0.5910    0.8167 H   0  0  0  0  0  0  0  0  0  0  0  0
   -1.2573    0.8281   -0.0000 N   0  0  0  0  0  4  0  0  0  0  0  0
   -1.0966    1.6587   -0.5268 H   0  0  0  0  0  0  0  0  0  0  0  0
   -1.9926    0.2983   -0.4141 H   0  0  0  0  0  0  0  0  0  0  0  0
   -1.4915    1.0596    0.9407 H   0  0  0  0  0  0  0  0  0  0  0  0
   -5.0010   -1.6993   -0.5081 C   0  0  0  0  0  0  0  0  0  0  0  0
   -5.6823   -1.3191    0.1795 H   0  0  0  0  0  0  0  0  0  0  0  0
   -4.3344   -2.2347    0.0840 H   0  0  0  0  0  0  0  0  0  0  0  0
   -5.5316   -2.4138   -1.1373 H   0  0  0  0  0  0  0  0  0  0  0  0
   -4.1526   -0.3611   -1.3735 S   0  0  0  0  0  0  0  0  0  0  0  0
   -3.3402   -1.2401   -2.6959 C   0  0  0  0  0  0  0  0  0  0  0  0
   -3.9535   -1.9431   -3.0630 H   0  0  0  0  0  0  0  0  0  0  0  0
   -3.0972   -0.6019   -3.4289 H   0  0  0  0  0  0  0  0  0  0  0  0
   -2.5064   -1.6776   -2.3513 H   0  0  0  0  0  0  0  0  0  0  0  0
  1  5  1  0
  5  8  1  0
  1  2  1  0
  1  3  1  0
  1  4  1  0
  5  6  1  0
  5  7  1  0
  8  9  1  0
  8 10  1  0
  8 11  1  0
 12 16  1  0
 16 17  1  0
 12 13  1  0
 12 14  1  0
 12 15  1  0
 17 18  1  0
 17 19  1  0
 17 20  1  0
M  CHG  1   8   1
M  END
>  <PDB_ID>  (1754) 
pdb5m9f

>  <RESIDUE_NAME>  (1754) 
LYS   MET

>  <FRAG_NAME>  (1754) 
ETAM   MSM

>  <FRAG_ATOM_NUM>  (1754) 
fragi: 11  fragj: 9

>  <atom.prop.CHAIN_ID>  (1754) 
A A A A A A A A A A A Z Z Z Z Z Z Z Z Z

>  <atom.prop.IS_HEAVY_ATOM>  (1754) 
1 0 0 0 1 0 0 1 0 0 0 1 0 0 0 1 1 0 0 0

>  <DIFUSE_FUNC_ATOM>  (1754) 
n/a

>  <FINAL_SINGLE_POINT_ENERGY>  (1754) 
0

>  <NONCOV_INTER_ENERGY_QM>  (1754) 
0

>  <FF_Energy>  (1754) 
-5.09

>  <QM_Energy>  (1754) 
-14.61

>  <source>  (1754) 
ETAM_MSM

>  <Index>  (1754) 
11213

$$$$
ETAM-pdb6pxu-B-LYS-320:MSM-pdb6pxu-A-MET-580
     RDKit          3D

 20 18  0  0  0  0  0  0  0  0999 V2000
    1.2285    0.8890   -0.0000 C   0  0  0  0  0  0  0  0  0  0  0  0
    1.2344    1.4258    0.8377 H   0  0  0  0  0  0  0  0  0  0  0  0
    1.1891    1.4881   -0.7933 H   0  0  0  0  0  0  0  0  0  0  0  0
    2.1467    0.3035   -0.0475 H   0  0  0  0  0  0  0  0  0  0  0  0
    0.0000    0.0000    0.0000 C   0  0  0  0  0  0  0  0  0  0  0  0
    0.0086   -0.5690   -0.8164 H   0  0  0  0  0  0  0  0  0  0  0  0
    0.0076   -0.5694    0.8161 H   0  0  0  0  0  0  0  0  0  0  0  0
   -1.2285    0.8414    0.0000 N   0  0  0  0  0  4  0  0  0  0  0  0
   -2.0324    0.2534    0.0859 H   0  0  0  0  0  0  0  0  0  0  0  0
   -1.1942    1.4778    0.7704 H   0  0  0  0  0  0  0  0  0  0  0  0
   -1.2785    1.3545   -0.8561 H   0  0  0  0  0  0  0  0  0  0  0  0
   -1.3244    4.9027    3.1209 C   0  0  0  0  0  0  0  0  0  0  0  0
   -2.3472    4.9999    3.1516 H   0  0  0  0  0  0  0  0  0  0  0  0
   -0.9602    5.8592    3.2163 H   0  0  0  0  0  0  0  0  0  0  0  0
   -1.0084    4.3259    3.9902 H   0  0  0  0  0  0  0  0  0  0  0  0
   -0.7961    4.1655    1.5892 S   0  0  0  0  0  0  0  0  0  0  0  0
    0.9691    4.0522    1.8817 C   0  0  0  0  0  0  0  0  0  0  0  0
    1.3094    3.1734    1.5439 H   0  0  0  0  0  0  0  0  0  0  0  0
    1.4362    4.7959    1.4017 H   0  0  0  0  0  0  0  0  0  0  0  0
    1.1513    4.1241    2.8631 H   0  0  0  0  0  0  0  0  0  0  0  0
  1  5  1  0
  5  8  1  0
  1  2  1  0
  1  3  1  0
  1  4  1  0
  5  6  1  0
  5  7  1  0
  8  9  1  0
  8 10  1  0
  8 11  1  0
 12 16  1  0
 16 17  1  0
 12 13  1  0
 12 14  1  0
 12 15  1  0
 17 18  1  0
 17 19  1  0
 17 20  1  0
M  CHG  1   8   1
M  END
>  <PDB_ID>  (1755) 
pdb6pxu

>  <RESIDUE_NAME>  (1755) 
LYS   MET

>  <FRAG_NAME>  (1755) 
ETAM   MSM

>  <FRAG_ATOM_NUM>  (1755) 
fragi: 11  fragj: 9

>  <atom.prop.CHAIN_ID>  (1755) 
A A A A A A A A A A A Z Z Z Z Z Z Z Z Z

>  <atom.prop.IS_HEAVY_ATOM>  (1755) 
1 0 0 0 1 0 0 1 0 0 0 1 0 0 0 1 1 0 0 0

>  <DIFUSE_FUNC_ATOM>  (1755) 
n/a

>  <FINAL_SINGLE_POINT_ENERGY>  (1755) 
0

>  <NONCOV_INTER_ENERGY_QM>  (1755) 
0

>  <FF_Energy>  (1755) 
-3.44

>  <QM_Energy>  (1755) 
-11.62

>  <source>  (1755) 
ETAM_MSM

>  <Index>  (1755) 
11215

$$$$
ETAM-pdb6qo5-A-LYS-64:MSM-pdb6qo5-B-MET-1
     RDKit          3D

 20 18  0  0  0  0  0  0  0  0999 V2000
    1.2274    0.8121    0.0000 C   0  0  0  0  0  0  0  0  0  0  0  0
    1.2548    1.3178    0.8278 H   0  0  0  0  0  0  0  0  0  0  0  0
    1.1898    1.4152   -0.7586 H   0  0  0  0  0  0  0  0  0  0  0  0
    2.1255    0.1989   -0.0746 H   0  0  0  0  0  0  0  0  0  0  0  0
    0.0000    0.0000    0.0000 C   0  0  0  0  0  0  0  0  0  0  0  0
   -0.0190   -0.5536   -0.7959 H   0  0  0  0  0  0  0  0  0  0  0  0
   -0.0186   -0.5535    0.7968 H   0  0  0  0  0  0  0  0  0  0  0  0
   -1.2274    0.8694    0.0000 N   0  0  0  0  0  4  0  0  0  0  0  0
   -1.2340    1.3862   -0.7244 H   0  0  0  0  0  0  0  0  0  0  0  0
   -1.9591    0.3617   -0.0002 H   0  0  0  0  0  0  0  0  0  0  0  0
   -1.2345    1.3856    0.7242 H   0  0  0  0  0  0  0  0  0  0  0  0
    0.3677    2.0524   -4.0577 C   0  0  0  0  0  0  0  0  0  0  0  0
    0.6908    2.6422   -3.3588 H   0  0  0  0  0  0  0  0  0  0  0  0
   -0.6001    2.0761   -4.1065 H   0  0  0  0  0  0  0  0  0  0  0  0
    0.7919    2.3510   -5.0163 H   0  0  0  0  0  0  0  0  0  0  0  0
    0.8861    0.3719   -3.6780 S   0  0  0  0  0  0  0  0  0  0  0  0
    0.3000   -0.5576   -5.1028 C   0  0  0  0  0  0  0  0  0  0  0  0
    0.5362   -1.4913   -4.9883 H   0  0  0  0  0  0  0  0  0  0  0  0
   -0.6633   -0.4651   -5.1653 H   0  0  0  0  0  0  0  0  0  0  0  0
    0.7197   -0.2061   -5.9030 H   0  0  0  0  0  0  0  0  0  0  0  0
  1  5  1  0
  5  8  1  0
  1  2  1  0
  1  3  1  0
  1  4  1  0
  5  6  1  0
  5  7  1  0
  8  9  1  0
  8 10  1  0
  8 11  1  0
 12 16  1  0
 16 17  1  0
 12 13  1  0
 12 14  1  0
 12 15  1  0
 17 18  1  0
 17 19  1  0
 17 20  1  0
M  CHG  1   8   1
M  END
>  <PDB_ID>  (1756) 
pdb6qo5

>  <RESIDUE_NAME>  (1756) 
LYS   MET

>  <FRAG_NAME>  (1756) 
ETAM   MSM

>  <FRAG_ATOM_NUM>  (1756) 
fragi: 11  fragj: 9

>  <atom.prop.CHAIN_ID>  (1756) 
A A A A A A A A A A A Z Z Z Z Z Z Z Z Z

>  <atom.prop.IS_HEAVY_ATOM>  (1756) 
1 0 0 0 1 0 0 1 0 0 0 1 0 0 0 1 1 0 0 0

>  <DIFUSE_FUNC_ATOM>  (1756) 
n/a

>  <FINAL_SINGLE_POINT_ENERGY>  (1756) 
0

>  <NONCOV_INTER_ENERGY_QM>  (1756) 
0

>  <FF_Energy>  (1756) 
-3.88

>  <QM_Energy>  (1756) 
-8.9

>  <source>  (1756) 
ETAM_MSM

>  <Index>  (1756) 
11220

$$$$
ETAM-pdb6qps-B-LYS-72:MSM-pdb6qps-B-MET-21
     RDKit          3D

 20 18  0  0  0  0  0  0  0  0999 V2000
    1.2625    0.8652    0.0000 C   0  0  0  0  0  0  0  0  0  0  0  0
    1.5276    1.0172    0.9214 H   0  0  0  0  0  0  0  0  0  0  0  0
    1.0538    1.7095   -0.4283 H   0  0  0  0  0  0  0  0  0  0  0  0
    2.0791    0.3800   -0.5347 H   0  0  0  0  0  0  0  0  0  0  0  0
    0.0000    0.0000    0.0000 C   0  0  0  0  0  0  0  0  0  0  0  0
   -0.0018   -0.5556   -0.7955 H   0  0  0  0  0  0  0  0  0  0  0  0
   -0.0026   -0.5571    0.7941 H   0  0  0  0  0  0  0  0  0  0  0  0
   -1.2625    0.8135    0.0000 N   0  0  0  0  0  4  0  0  0  0  0  0
   -1.9715    0.2761    0.0298 H   0  0  0  0  0  0  0  0  0  0  0  0
   -1.2786    1.3511    0.7096 H   0  0  0  0  0  0  0  0  0  0  0  0
   -1.3066    1.3087   -0.7382 H   0  0  0  0  0  0  0  0  0  0  0  0
   -2.8000    0.6931   -3.7792 C   0  0  0  0  0  0  0  0  0  0  0  0
   -2.1084    1.2508   -4.1689 H   0  0  0  0  0  0  0  0  0  0  0  0
   -3.2303    1.1605   -3.0464 H   0  0  0  0  0  0  0  0  0  0  0  0
   -3.5460    0.4721   -4.5424 H   0  0  0  0  0  0  0  0  0  0  0  0
   -2.0072   -0.7765   -3.1050 S   0  0  0  0  0  0  0  0  0  0  0  0
   -1.4387   -1.5982   -4.5889 C   0  0  0  0  0  0  0  0  0  0  0  0
   -0.9807   -2.4159   -4.3405 H   0  0  0  0  0  0  0  0  0  0  0  0
   -2.2042   -1.8049   -5.1482 H   0  0  0  0  0  0  0  0  0  0  0  0
   -0.8315   -1.0089   -5.0634 H   0  0  0  0  0  0  0  0  0  0  0  0
  1  5  1  0
  5  8  1  0
  1  2  1  0
  1  3  1  0
  1  4  1  0
  5  6  1  0
  5  7  1  0
  8  9  1  0
  8 10  1  0
  8 11  1  0
 12 16  1  0
 16 17  1  0
 12 13  1  0
 12 14  1  0
 12 15  1  0
 17 18  1  0
 17 19  1  0
 17 20  1  0
M  CHG  1   8   1
M  END
>  <PDB_ID>  (1757) 
pdb6qps

>  <RESIDUE_NAME>  (1757) 
LYS   MET

>  <FRAG_NAME>  (1757) 
ETAM   MSM

>  <FRAG_ATOM_NUM>  (1757) 
fragi: 11  fragj: 9

>  <atom.prop.CHAIN_ID>  (1757) 
A A A A A A A A A A A Z Z Z Z Z Z Z Z Z

>  <atom.prop.IS_HEAVY_ATOM>  (1757) 
1 0 0 0 1 0 0 1 0 0 0 1 0 0 0 1 1 0 0 0

>  <DIFUSE_FUNC_ATOM>  (1757) 
n/a

>  <FINAL_SINGLE_POINT_ENERGY>  (1757) 
0

>  <NONCOV_INTER_ENERGY_QM>  (1757) 
0

>  <FF_Energy>  (1757) 
-4.84

>  <QM_Energy>  (1757) 
-10.95

>  <source>  (1757) 
ETAM_MSM

>  <Index>  (1757) 
11228

$$$$
ETAM-pdb5mq1-A-LYS-184:MSM-pdb5mq1-A-MET-176
     RDKit          3D

 20 18  0  0  0  0  0  0  0  0999 V2000
    1.2486    0.8679    0.0000 C   0  0  0  0  0  0  0  0  0  0  0  0
    1.1528    1.5655    0.7134 H   0  0  0  0  0  0  0  0  0  0  0  0
    1.3243    1.3193   -0.8920 H   0  0  0  0  0  0  0  0  0  0  0  0
    2.1667    0.3099    0.1841 H   0  0  0  0  0  0  0  0  0  0  0  0
    0.0000    0.0000    0.0000 C   0  0  0  0  0  0  0  0  0  0  0  0
   -0.0076   -0.5695   -0.8167 H   0  0  0  0  0  0  0  0  0  0  0  0
   -0.0078   -0.5703    0.8159 H   0  0  0  0  0  0  0  0  0  0  0  0
   -1.2486    0.8601   -0.0000 N   0  0  0  0  0  4  0  0  0  0  0  0
   -2.0194    0.3008    0.2875 H   0  0  0  0  0  0  0  0  0  0  0  0
   -1.1133    1.6150    0.6346 H   0  0  0  0  0  0  0  0  0  0  0  0
   -1.3967    1.2057   -0.9216 H   0  0  0  0  0  0  0  0  0  0  0  0
   -1.8688    5.3542    2.5657 C   0  0  0  0  0  0  0  0  0  0  0  0
   -2.2490    5.6548    1.6554 H   0  0  0  0  0  0  0  0  0  0  0  0
   -1.1522    6.0602    2.7956 H   0  0  0  0  0  0  0  0  0  0  0  0
   -2.6696    5.4548    3.2983 H   0  0  0  0  0  0  0  0  0  0  0  0
   -1.1475    3.7032    2.4596 S   0  0  0  0  0  0  0  0  0  0  0  0
   -2.5998    2.6891    2.1654 C   0  0  0  0  0  0  0  0  0  0  0  0
   -2.8033    2.1525    2.9848 H   0  0  0  0  0  0  0  0  0  0  0  0
   -3.3789    3.2777    1.9498 H   0  0  0  0  0  0  0  0  0  0  0  0
   -2.4253    2.0716    1.3975 H   0  0  0  0  0  0  0  0  0  0  0  0
  1  5  1  0
  5  8  1  0
  1  2  1  0
  1  3  1  0
  1  4  1  0
  5  6  1  0
  5  7  1  0
  8  9  1  0
  8 10  1  0
  8 11  1  0
 12 16  1  0
 16 17  1  0
 12 13  1  0
 12 14  1  0
 12 15  1  0
 17 18  1  0
 17 19  1  0
 17 20  1  0
M  CHG  1   8   1
M  END
>  <PDB_ID>  (1758) 
pdb5mq1

>  <RESIDUE_NAME>  (1758) 
LYS   MET

>  <FRAG_NAME>  (1758) 
ETAM   MSM

>  <FRAG_ATOM_NUM>  (1758) 
fragi: 11  fragj: 9

>  <atom.prop.CHAIN_ID>  (1758) 
A A A A A A A A A A A Z Z Z Z Z Z Z Z Z

>  <atom.prop.IS_HEAVY_ATOM>  (1758) 
1 0 0 0 1 0 0 1 0 0 0 1 0 0 0 1 1 0 0 0

>  <DIFUSE_FUNC_ATOM>  (1758) 
n/a

>  <FINAL_SINGLE_POINT_ENERGY>  (1758) 
0

>  <NONCOV_INTER_ENERGY_QM>  (1758) 
0

>  <FF_Energy>  (1758) 
3.55

>  <QM_Energy>  (1758) 
-2.14

>  <source>  (1758) 
ETAM_MSM

>  <Index>  (1758) 
11233

$$$$
ETAM-pdb6qwq-A-LYS-184:MSM-pdb6qwq-A-MET-133
     RDKit          3D

 20 18  0  0  0  0  0  0  0  0999 V2000
    1.2463    0.8706   -0.0000 C   0  0  0  0  0  0  0  0  0  0  0  0
    1.4180    1.1462   -0.9138 H   0  0  0  0  0  0  0  0  0  0  0  0
    1.9847    0.3327    0.3287 H   0  0  0  0  0  0  0  0  0  0  0  0
    1.1509    1.7586    0.6249 H   0  0  0  0  0  0  0  0  0  0  0  0
    0.0000    0.0000    0.0000 C   0  0  0  0  0  0  0  0  0  0  0  0
    0.0006   -0.5567   -0.7943 H   0  0  0  0  0  0  0  0  0  0  0  0
    0.0004   -0.5557    0.7951 H   0  0  0  0  0  0  0  0  0  0  0  0
   -1.2463    0.8002    0.0000 N   0  0  0  0  0  4  0  0  0  0  0  0
   -1.2184    1.4067   -0.6499 H   0  0  0  0  0  0  0  0  0  0  0  0
   -1.9490    0.2690   -0.1309 H   0  0  0  0  0  0  0  0  0  0  0  0
   -1.3408    1.2175    0.7808 H   0  0  0  0  0  0  0  0  0  0  0  0
   -4.5654    3.2292    1.6205 C   0  0  0  0  0  0  0  0  0  0  0  0
   -4.8401    4.1492    1.7580 H   0  0  0  0  0  0  0  0  0  0  0  0
   -5.1273    2.6325    2.1398 H   0  0  0  0  0  0  0  0  0  0  0  0
   -4.6314    2.9752    0.5626 H   0  0  0  0  0  0  0  0  0  0  0  0
   -2.8476    3.0391    2.1575 S   0  0  0  0  0  0  0  0  0  0  0  0
   -2.0908    4.5307    1.5486 C   0  0  0  0  0  0  0  0  0  0  0  0
   -1.8136    4.3913    0.6286 H   0  0  0  0  0  0  0  0  0  0  0  0
   -2.7362    5.2535    1.5928 H   0  0  0  0  0  0  0  0  0  0  0  0
   -1.3194    4.7409    2.0979 H   0  0  0  0  0  0  0  0  0  0  0  0
  1  5  1  0
  5  8  1  0
  1  2  1  0
  1  3  1  0
  1  4  1  0
  5  6  1  0
  5  7  1  0
  8  9  1  0
  8 10  1  0
  8 11  1  0
 12 16  1  0
 16 17  1  0
 12 13  1  0
 12 14  1  0
 12 15  1  0
 17 18  1  0
 17 19  1  0
 17 20  1  0
M  CHG  1   8   1
M  END
>  <PDB_ID>  (1759) 
pdb6qwq

>  <RESIDUE_NAME>  (1759) 
LYS   MET

>  <FRAG_NAME>  (1759) 
ETAM   MSM

>  <FRAG_ATOM_NUM>  (1759) 
fragi: 11  fragj: 9

>  <atom.prop.CHAIN_ID>  (1759) 
A A A A A A A A A A A Z Z Z Z Z Z Z Z Z

>  <atom.prop.IS_HEAVY_ATOM>  (1759) 
1 0 0 0 1 0 0 1 0 0 0 1 0 0 0 1 1 0 0 0

>  <DIFUSE_FUNC_ATOM>  (1759) 
n/a

>  <FINAL_SINGLE_POINT_ENERGY>  (1759) 
0

>  <NONCOV_INTER_ENERGY_QM>  (1759) 
0

>  <FF_Energy>  (1759) 
-4.33

>  <QM_Energy>  (1759) 
-12.79

>  <source>  (1759) 
ETAM_MSM

>  <Index>  (1759) 
11236

$$$$
ETAM-pdb5mqq-B-LYS-211:MSM-pdb5mqq-B-MET-94
     RDKit          3D

 20 18  0  0  0  0  0  0  0  0999 V2000
    1.3294    0.8294    0.0000 C   0  0  0  0  0  0  0  0  0  0  0  0
    1.6221    0.9266   -0.9768 H   0  0  0  0  0  0  0  0  0  0  0  0
    2.0439    0.2488    0.4487 H   0  0  0  0  0  0  0  0  0  0  0  0
    1.3498    1.8163    0.4621 H   0  0  0  0  0  0  0  0  0  0  0  0
    0.0000    0.0000    0.0000 C   0  0  0  0  0  0  0  0  0  0  0  0
    0.0612   -0.6544   -0.8160 H   0  0  0  0  0  0  0  0  0  0  0  0
    0.0607   -0.6555    0.8164 H   0  0  0  0  0  0  0  0  0  0  0  0
   -1.3294    0.6389   -0.0000 N   0  0  0  0  0  4  0  0  0  0  0  0
   -2.0381   -0.0559    0.1343 H   0  0  0  0  0  0  0  0  0  0  0  0
   -1.3814    1.3110    0.7409 H   0  0  0  0  0  0  0  0  0  0  0  0
   -1.4824    1.1013   -0.8757 H   0  0  0  0  0  0  0  0  0  0  0  0
   -0.6933    3.1752   -3.0329 C   0  0  0  0  0  0  0  0  0  0  0  0
   -0.1464    2.3297   -2.8431 H   0  0  0  0  0  0  0  0  0  0  0  0
   -0.0320    3.9541   -2.9605 H   0  0  0  0  0  0  0  0  0  0  0  0
   -1.0642    3.1269   -4.0567 H   0  0  0  0  0  0  0  0  0  0  0  0
   -2.0245    3.3554   -1.8377 S   0  0  0  0  0  0  0  0  0  0  0  0
   -1.4362    4.7765   -0.9249 C   0  0  0  0  0  0  0  0  0  0  0  0
   -2.2013    5.3919   -0.7285 H   0  0  0  0  0  0  0  0  0  0  0  0
   -1.0234    4.4765   -0.0627 H   0  0  0  0  0  0  0  0  0  0  0  0
   -0.7502    5.2652   -1.4674 H   0  0  0  0  0  0  0  0  0  0  0  0
  1  5  1  0
  5  8  1  0
  1  2  1  0
  1  3  1  0
  1  4  1  0
  5  6  1  0
  5  7  1  0
  8  9  1  0
  8 10  1  0
  8 11  1  0
 12 16  1  0
 16 17  1  0
 12 13  1  0
 12 14  1  0
 12 15  1  0
 17 18  1  0
 17 19  1  0
 17 20  1  0
M  CHG  1   8   1
M  END
>  <PDB_ID>  (1760) 
pdb5mqq

>  <RESIDUE_NAME>  (1760) 
LYS   MET

>  <FRAG_NAME>  (1760) 
ETAM   MSM

>  <FRAG_ATOM_NUM>  (1760) 
fragi: 11  fragj: 9

>  <atom.prop.CHAIN_ID>  (1760) 
A A A A A A A A A A A Z Z Z Z Z Z Z Z Z

>  <atom.prop.IS_HEAVY_ATOM>  (1760) 
1 0 0 0 1 0 0 1 0 0 0 1 0 0 0 1 1 0 0 0

>  <DIFUSE_FUNC_ATOM>  (1760) 
n/a

>  <FINAL_SINGLE_POINT_ENERGY>  (1760) 
0

>  <NONCOV_INTER_ENERGY_QM>  (1760) 
0

>  <FF_Energy>  (1760) 
-5.05

>  <QM_Energy>  (1760) 
-13.33

>  <source>  (1760) 
ETAM_MSM

>  <Index>  (1760) 
11241

$$$$
ETAM-pdb6qxl-A-LYS-341:MSM-pdb6qxl-A-MET-1
     RDKit          3D

 20 18  0  0  0  0  0  0  0  0999 V2000
    1.2243    0.9344    0.0000 C   0  0  0  0  0  0  0  0  0  0  0  0
    1.1300    1.5680    0.7743 H   0  0  0  0  0  0  0  0  0  0  0  0
    1.2095    1.4634   -0.8535 H   0  0  0  0  0  0  0  0  0  0  0  0
    2.1827    0.4214    0.0803 H   0  0  0  0  0  0  0  0  0  0  0  0
    0.0000    0.0000    0.0000 C   0  0  0  0  0  0  0  0  0  0  0  0
    0.0346   -0.5598   -0.8162 H   0  0  0  0  0  0  0  0  0  0  0  0
    0.0345   -0.5602    0.8169 H   0  0  0  0  0  0  0  0  0  0  0  0
   -1.2243    0.8213    0.0000 N   0  0  0  0  0  4  0  0  0  0  0  0
   -2.0134    0.2532   -0.2431 H   0  0  0  0  0  0  0  0  0  0  0  0
   -1.3688    1.2133    0.9106 H   0  0  0  0  0  0  0  0  0  0  0  0
   -1.1342    1.5627   -0.6674 H   0  0  0  0  0  0  0  0  0  0  0  0
    0.6566    3.0900   -4.6751 C   0  0  0  0  0  0  0  0  0  0  0  0
    0.0435    3.9171   -4.2886 H   0  0  0  0  0  0  0  0  0  0  0  0
    0.1283    2.9986   -5.6358 H   0  0  0  0  0  0  0  0  0  0  0  0
    1.6382    3.5086   -4.8973 H   0  0  0  0  0  0  0  0  0  0  0  0
    0.2624    1.5679   -3.6634 S   0  0  0  0  0  0  0  0  0  0  0  0
    0.3554    0.2026   -4.8044 C   0  0  0  0  0  0  0  0  0  0  0  0
   -0.5439    0.0418   -5.2177 H   0  0  0  0  0  0  0  0  0  0  0  0
    1.0163    0.4086   -5.5291 H   0  0  0  0  0  0  0  0  0  0  0  0
    0.6469   -0.6260   -4.3207 H   0  0  0  0  0  0  0  0  0  0  0  0
  1  5  1  0
  5  8  1  0
  1  2  1  0
  1  3  1  0
  1  4  1  0
  5  6  1  0
  5  7  1  0
  8  9  1  0
  8 10  1  0
  8 11  1  0
 12 16  1  0
 16 17  1  0
 12 13  1  0
 12 14  1  0
 12 15  1  0
 17 18  1  0
 17 19  1  0
 17 20  1  0
M  CHG  1   8   1
M  END
>  <PDB_ID>  (1761) 
pdb6qxl

>  <RESIDUE_NAME>  (1761) 
LYS   MET

>  <FRAG_NAME>  (1761) 
ETAM   MSM

>  <FRAG_ATOM_NUM>  (1761) 
fragi: 11  fragj: 9

>  <atom.prop.CHAIN_ID>  (1761) 
A A A A A A A A A A A Z Z Z Z Z Z Z Z Z

>  <atom.prop.IS_HEAVY_ATOM>  (1761) 
1 0 0 0 1 0 0 1 0 0 0 1 0 0 0 1 1 0 0 0

>  <DIFUSE_FUNC_ATOM>  (1761) 
n/a

>  <FINAL_SINGLE_POINT_ENERGY>  (1761) 
0

>  <NONCOV_INTER_ENERGY_QM>  (1761) 
0

>  <FF_Energy>  (1761) 
-5.05

>  <QM_Energy>  (1761) 
-10.63

>  <source>  (1761) 
ETAM_MSM

>  <Index>  (1761) 
11251

$$$$
ETAM-pdb5msx-B-LYS-388:MSM-pdb5msx-B-MET-324
     RDKit          3D

 20 18  0  0  0  0  0  0  0  0999 V2000
    1.2328    0.8741   -0.0000 C   0  0  0  0  0  0  0  0  0  0  0  0
    1.2146    1.4536    0.8172 H   0  0  0  0  0  0  0  0  0  0  0  0
    1.2135    1.4540   -0.8169 H   0  0  0  0  0  0  0  0  0  0  0  0
    2.1578    0.2974   -0.0003 H   0  0  0  0  0  0  0  0  0  0  0  0
    0.0000    0.0000    0.0000 C   0  0  0  0  0  0  0  0  0  0  0  0
    0.0076   -0.5783   -0.8165 H   0  0  0  0  0  0  0  0  0  0  0  0
    0.0070   -0.5792    0.8159 H   0  0  0  0  0  0  0  0  0  0  0  0
   -1.2328    0.8277    0.0000 N   0  0  0  0  0  4  0  0  0  0  0  0
   -1.9364    0.3784   -0.5501 H   0  0  0  0  0  0  0  0  0  0  0  0
   -1.5614    0.9351    0.9389 H   0  0  0  0  0  0  0  0  0  0  0  0
   -1.0300    1.7272   -0.3869 H   0  0  0  0  0  0  0  0  0  0  0  0
    1.1492    6.4862   -0.7786 C   0  0  0  0  0  0  0  0  0  0  0  0
    0.7653    6.1121   -1.6362 H   0  0  0  0  0  0  0  0  0  0  0  0
    1.5792    7.3756   -0.9966 H   0  0  0  0  0  0  0  0  0  0  0  0
    0.3402    6.6455   -0.0657 H   0  0  0  0  0  0  0  0  0  0  0  0
    2.3569    5.3497   -0.0712 S   0  0  0  0  0  0  0  0  0  0  0  0
    1.5820    3.7608   -0.3852 C   0  0  0  0  0  0  0  0  0  0  0  0
    1.1988    3.7530   -1.3092 H   0  0  0  0  0  0  0  0  0  0  0  0
    2.2645    3.0345   -0.3023 H   0  0  0  0  0  0  0  0  0  0  0  0
    0.8509    3.6090    0.2805 H   0  0  0  0  0  0  0  0  0  0  0  0
  1  5  1  0
  5  8  1  0
  1  2  1  0
  1  3  1  0
  1  4  1  0
  5  6  1  0
  5  7  1  0
  8  9  1  0
  8 10  1  0
  8 11  1  0
 12 16  1  0
 16 17  1  0
 12 13  1  0
 12 14  1  0
 12 15  1  0
 17 18  1  0
 17 19  1  0
 17 20  1  0
M  CHG  1   8   1
M  END
>  <PDB_ID>  (1762) 
pdb5msx

>  <RESIDUE_NAME>  (1762) 
LYS   MET

>  <FRAG_NAME>  (1762) 
ETAM   MSM

>  <FRAG_ATOM_NUM>  (1762) 
fragi: 11  fragj: 9

>  <atom.prop.CHAIN_ID>  (1762) 
A A A A A A A A A A A Z Z Z Z Z Z Z Z Z

>  <atom.prop.IS_HEAVY_ATOM>  (1762) 
1 0 0 0 1 0 0 1 0 0 0 1 0 0 0 1 1 0 0 0

>  <DIFUSE_FUNC_ATOM>  (1762) 
n/a

>  <FINAL_SINGLE_POINT_ENERGY>  (1762) 
0

>  <NONCOV_INTER_ENERGY_QM>  (1762) 
0

>  <FF_Energy>  (1762) 
9.38

>  <QM_Energy>  (1762) 
4.09

>  <source>  (1762) 
ETAM_MSM

>  <Index>  (1762) 
11260

$$$$
ETAM-pdb6r4v-A-LYS-102:MSM-pdb6r4v-A-MET-55
     RDKit          3D

 20 18  0  0  0  0  0  0  0  0999 V2000
    1.3914    0.7799   -0.0000 C   0  0  0  0  0  0  0  0  0  0  0  0
    1.4928    1.2503   -0.8776 H   0  0  0  0  0  0  0  0  0  0  0  0
    2.1295    0.1134    0.1069 H   0  0  0  0  0  0  0  0  0  0  0  0
    1.5499    1.5358    0.7691 H   0  0  0  0  0  0  0  0  0  0  0  0
    0.0000    0.0000    0.0000 C   0  0  0  0  0  0  0  0  0  0  0  0
   -0.0629   -0.5771   -0.8158 H   0  0  0  0  0  0  0  0  0  0  0  0
   -0.0632   -0.5775    0.8165 H   0  0  0  0  0  0  0  0  0  0  0  0
   -1.3914    0.9221   -0.0000 N   0  0  0  0  0  4  0  0  0  0  0  0
   -2.0053    0.4318    0.5743 H   0  0  0  0  0  0  0  0  0  0  0  0
   -1.1106    1.7814    0.3603 H   0  0  0  0  0  0  0  0  0  0  0  0
   -1.6609    0.9528   -0.9345 H   0  0  0  0  0  0  0  0  0  0  0  0
    1.5999    0.9910   -4.8378 C   0  0  0  0  0  0  0  0  0  0  0  0
    0.8504    0.9517   -5.5185 H   0  0  0  0  0  0  0  0  0  0  0  0
    1.8220    0.0379   -4.5761 H   0  0  0  0  0  0  0  0  0  0  0  0
    2.4754    1.4587   -5.2882 H   0  0  0  0  0  0  0  0  0  0  0  0
    1.0901    1.9395   -3.3915 S   0  0  0  0  0  0  0  0  0  0  0  0
    0.1881    3.2648   -4.1788 C   0  0  0  0  0  0  0  0  0  0  0  0
   -0.3470    2.9020   -4.9446 H   0  0  0  0  0  0  0  0  0  0  0  0
   -0.4315    3.6919   -3.5170 H   0  0  0  0  0  0  0  0  0  0  0  0
    0.8300    3.9536   -4.5214 H   0  0  0  0  0  0  0  0  0  0  0  0
  1  5  1  0
  5  8  1  0
  1  2  1  0
  1  3  1  0
  1  4  1  0
  5  6  1  0
  5  7  1  0
  8  9  1  0
  8 10  1  0
  8 11  1  0
 12 16  1  0
 16 17  1  0
 12 13  1  0
 12 14  1  0
 12 15  1  0
 17 18  1  0
 17 19  1  0
 17 20  1  0
M  CHG  1   8   1
M  END
>  <PDB_ID>  (1763) 
pdb6r4v

>  <RESIDUE_NAME>  (1763) 
LYS   MET

>  <FRAG_NAME>  (1763) 
ETAM   MSM

>  <FRAG_ATOM_NUM>  (1763) 
fragi: 11  fragj: 9

>  <atom.prop.CHAIN_ID>  (1763) 
A A A A A A A A A A A Z Z Z Z Z Z Z Z Z

>  <atom.prop.IS_HEAVY_ATOM>  (1763) 
1 0 0 0 1 0 0 1 0 0 0 1 0 0 0 1 1 0 0 0

>  <DIFUSE_FUNC_ATOM>  (1763) 
n/a

>  <FINAL_SINGLE_POINT_ENERGY>  (1763) 
0

>  <NONCOV_INTER_ENERGY_QM>  (1763) 
0

>  <FF_Energy>  (1763) 
-3.12

>  <QM_Energy>  (1763) 
-8.55

>  <source>  (1763) 
ETAM_MSM

>  <Index>  (1763) 
11262

$$$$
ETAM-pdb6r76-A-LYS-216:MSM-pdb6r76-A-MET-220
     RDKit          3D

 20 18  0  0  0  0  0  0  0  0999 V2000
    1.2566    0.8402   -0.0000 C   0  0  0  0  0  0  0  0  0  0  0  0
    1.9671    0.3573    0.5158 H   0  0  0  0  0  0  0  0  0  0  0  0
    1.0601    1.7137    0.4501 H   0  0  0  0  0  0  0  0  0  0  0  0
    1.6363    1.0448   -1.0011 H   0  0  0  0  0  0  0  0  0  0  0  0
    0.0000    0.0000    0.0000 C   0  0  0  0  0  0  0  0  0  0  0  0
    0.0008   -0.5962   -0.8159 H   0  0  0  0  0  0  0  0  0  0  0  0
    0.0000   -0.5959    0.8167 H   0  0  0  0  0  0  0  0  0  0  0  0
   -1.2566    0.8103    0.0000 N   0  0  0  0  0  4  0  0  0  0  0  0
   -1.3376    1.2906    0.8717 H   0  0  0  0  0  0  0  0  0  0  0  0
   -1.2210    1.4709   -0.7470 H   0  0  0  0  0  0  0  0  0  0  0  0
   -2.0388    0.2026   -0.1242 H   0  0  0  0  0  0  0  0  0  0  0  0
   -0.1489    3.9017   -4.1459 C   0  0  0  0  0  0  0  0  0  0  0  0
   -0.6059    3.4101   -4.9125 H   0  0  0  0  0  0  0  0  0  0  0  0
    0.7945    3.5214   -4.0824 H   0  0  0  0  0  0  0  0  0  0  0  0
   -0.0784    4.9574   -4.4080 H   0  0  0  0  0  0  0  0  0  0  0  0
   -1.0424    3.6724   -2.6078 S   0  0  0  0  0  0  0  0  0  0  0  0
   -2.3617    4.8766   -2.8510 C   0  0  0  0  0  0  0  0  0  0  0  0
   -2.7674    5.1045   -1.9672 H   0  0  0  0  0  0  0  0  0  0  0  0
   -1.9835    5.7012   -3.2699 H   0  0  0  0  0  0  0  0  0  0  0  0
   -3.0592    4.4853   -3.4498 H   0  0  0  0  0  0  0  0  0  0  0  0
  1  5  1  0
  5  8  1  0
  1  2  1  0
  1  3  1  0
  1  4  1  0
  5  6  1  0
  5  7  1  0
  8  9  1  0
  8 10  1  0
  8 11  1  0
 12 16  1  0
 16 17  1  0
 12 13  1  0
 12 14  1  0
 12 15  1  0
 17 18  1  0
 17 19  1  0
 17 20  1  0
M  CHG  1   8   1
M  END
>  <PDB_ID>  (1764) 
pdb6r76

>  <RESIDUE_NAME>  (1764) 
LYS   MET

>  <FRAG_NAME>  (1764) 
ETAM   MSM

>  <FRAG_ATOM_NUM>  (1764) 
fragi: 11  fragj: 9

>  <atom.prop.CHAIN_ID>  (1764) 
A A A A A A A A A A A Z Z Z Z Z Z Z Z Z

>  <atom.prop.IS_HEAVY_ATOM>  (1764) 
1 0 0 0 1 0 0 1 0 0 0 1 0 0 0 1 1 0 0 0

>  <DIFUSE_FUNC_ATOM>  (1764) 
n/a

>  <FINAL_SINGLE_POINT_ENERGY>  (1764) 
0

>  <NONCOV_INTER_ENERGY_QM>  (1764) 
0

>  <FF_Energy>  (1764) 
-5.04

>  <QM_Energy>  (1764) 
-11.85

>  <source>  (1764) 
ETAM_MSM

>  <Index>  (1764) 
11270

$$$$
ETAM-pdb6r76-C-LYS-216:MSM-pdb6r76-C-MET-220
     RDKit          3D

 20 18  0  0  0  0  0  0  0  0999 V2000
    1.2423    0.8630    0.0000 C   0  0  0  0  0  0  0  0  0  0  0  0
    1.8959    0.4912    0.6635 H   0  0  0  0  0  0  0  0  0  0  0  0
    0.9907    1.7938    0.2766 H   0  0  0  0  0  0  0  0  0  0  0  0
    1.7372    0.9182   -0.9696 H   0  0  0  0  0  0  0  0  0  0  0  0
    0.0000    0.0000    0.0000 C   0  0  0  0  0  0  0  0  0  0  0  0
    0.0098   -0.5876   -0.8167 H   0  0  0  0  0  0  0  0  0  0  0  0
    0.0088   -0.5882    0.8166 H   0  0  0  0  0  0  0  0  0  0  0  0
   -1.2423    0.8114   -0.0000 N   0  0  0  0  0  4  0  0  0  0  0  0
   -1.6958    0.7278   -0.8882 H   0  0  0  0  0  0  0  0  0  0  0  0
   -1.8554    0.4830    0.7188 H   0  0  0  0  0  0  0  0  0  0  0  0
   -1.0141    1.7705    0.1688 H   0  0  0  0  0  0  0  0  0  0  0  0
    0.0868    2.5877   -5.0221 C   0  0  0  0  0  0  0  0  0  0  0  0
   -0.1681    1.7942   -5.6323 H   0  0  0  0  0  0  0  0  0  0  0  0
    1.0751    2.4145   -4.7751 H   0  0  0  0  0  0  0  0  0  0  0  0
    0.0430    3.4984   -5.6195 H   0  0  0  0  0  0  0  0  0  0  0  0
   -0.9482    2.6075   -3.5339 S   0  0  0  0  0  0  0  0  0  0  0  0
   -2.5878    2.5692   -4.2792 C   0  0  0  0  0  0  0  0  0  0  0  0
   -2.4985    2.4646   -5.2688 H   0  0  0  0  0  0  0  0  0  0  0  0
   -3.1031    1.7988   -3.9059 H   0  0  0  0  0  0  0  0  0  0  0  0
   -3.0644    3.4237   -4.0737 H   0  0  0  0  0  0  0  0  0  0  0  0
  1  5  1  0
  5  8  1  0
  1  2  1  0
  1  3  1  0
  1  4  1  0
  5  6  1  0
  5  7  1  0
  8  9  1  0
  8 10  1  0
  8 11  1  0
 12 16  1  0
 16 17  1  0
 12 13  1  0
 12 14  1  0
 12 15  1  0
 17 18  1  0
 17 19  1  0
 17 20  1  0
M  CHG  1   8   1
M  END
>  <PDB_ID>  (1765) 
pdb6r76

>  <RESIDUE_NAME>  (1765) 
LYS   MET

>  <FRAG_NAME>  (1765) 
ETAM   MSM

>  <FRAG_ATOM_NUM>  (1765) 
fragi: 11  fragj: 9

>  <atom.prop.CHAIN_ID>  (1765) 
A A A A A A A A A A A Z Z Z Z Z Z Z Z Z

>  <atom.prop.IS_HEAVY_ATOM>  (1765) 
1 0 0 0 1 0 0 1 0 0 0 1 0 0 0 1 1 0 0 0

>  <DIFUSE_FUNC_ATOM>  (1765) 
n/a

>  <FINAL_SINGLE_POINT_ENERGY>  (1765) 
0

>  <NONCOV_INTER_ENERGY_QM>  (1765) 
0

>  <FF_Energy>  (1765) 
-4.48

>  <QM_Energy>  (1765) 
-9.69

>  <source>  (1765) 
ETAM_MSM

>  <Index>  (1765) 
11275

$$$$
ETAM-pdb6r3r-A-LYS-245:MSM-pdb6r3r-A-MET-275
     RDKit          3D

 20 18  0  0  0  0  0  0  0  0999 V2000
    1.2601    0.8578   -0.0000 C   0  0  0  0  0  0  0  0  0  0  0  0
    1.2890    1.3596    0.8302 H   0  0  0  0  0  0  0  0  0  0  0  0
    1.2179    1.4655   -0.7539 H   0  0  0  0  0  0  0  0  0  0  0  0
    2.1541    0.2394   -0.0811 H   0  0  0  0  0  0  0  0  0  0  0  0
    0.0000    0.0000    0.0000 C   0  0  0  0  0  0  0  0  0  0  0  0
   -0.0008   -0.5554   -0.7949 H   0  0  0  0  0  0  0  0  0  0  0  0
   -0.0012   -0.5564    0.7947 H   0  0  0  0  0  0  0  0  0  0  0  0
   -1.2601    0.7977    0.0000 N   0  0  0  0  0  4  0  0  0  0  0  0
   -1.4052    1.1367    0.8099 H   0  0  0  0  0  0  0  0  0  0  0  0
   -1.1982    1.4646   -0.5856 H   0  0  0  0  0  0  0  0  0  0  0  0
   -1.9481    0.2784   -0.2241 H   0  0  0  0  0  0  0  0  0  0  0  0
    1.2419    5.0264    1.1413 C   0  0  0  0  0  0  0  0  0  0  0  0
    2.0707    4.5506    1.3087 H   0  0  0  0  0  0  0  0  0  0  0  0
    1.2418    5.8709    1.6192 H   0  0  0  0  0  0  0  0  0  0  0  0
    1.1610    5.2269    0.0729 H   0  0  0  0  0  0  0  0  0  0  0  0
   -0.1151    4.0208    1.7899 S   0  0  0  0  0  0  0  0  0  0  0  0
   -1.5434    5.0450    1.4261 C   0  0  0  0  0  0  0  0  0  0  0  0
   -2.3270    4.6542    1.8454 H   0  0  0  0  0  0  0  0  0  0  0  0
   -1.3909    5.9367    1.7767 H   0  0  0  0  0  0  0  0  0  0  0  0
   -1.6679    5.0842    0.4654 H   0  0  0  0  0  0  0  0  0  0  0  0
  1  5  1  0
  5  8  1  0
  1  2  1  0
  1  3  1  0
  1  4  1  0
  5  6  1  0
  5  7  1  0
  8  9  1  0
  8 10  1  0
  8 11  1  0
 12 16  1  0
 16 17  1  0
 12 13  1  0
 12 14  1  0
 12 15  1  0
 17 18  1  0
 17 19  1  0
 17 20  1  0
M  CHG  1   8   1
M  END
>  <PDB_ID>  (1766) 
pdb6r3r

>  <RESIDUE_NAME>  (1766) 
LYS   MET

>  <FRAG_NAME>  (1766) 
ETAM   MSM

>  <FRAG_ATOM_NUM>  (1766) 
fragi: 11  fragj: 9

>  <atom.prop.CHAIN_ID>  (1766) 
A A A A A A A A A A A Z Z Z Z Z Z Z Z Z

>  <atom.prop.IS_HEAVY_ATOM>  (1766) 
1 0 0 0 1 0 0 1 0 0 0 1 0 0 0 1 1 0 0 0

>  <DIFUSE_FUNC_ATOM>  (1766) 
n/a

>  <FINAL_SINGLE_POINT_ENERGY>  (1766) 
0

>  <NONCOV_INTER_ENERGY_QM>  (1766) 
0

>  <FF_Energy>  (1766) 
-4.55

>  <QM_Energy>  (1766) 
-10.79

>  <source>  (1766) 
ETAM_MSM

>  <Index>  (1766) 
11280

$$$$
ETAM-pdb5mqm-A-LYS-422:MSM-pdb5mqm-A-MET-140
     RDKit          3D

 20 18  0  0  0  0  0  0  0  0999 V2000
    1.2664    0.8334   -0.0000 C   0  0  0  0  0  0  0  0  0  0  0  0
    2.0531    0.2223   -0.0472 H   0  0  0  0  0  0  0  0  0  0  0  0
    1.2986    1.3670    0.8412 H   0  0  0  0  0  0  0  0  0  0  0  0
    1.3060    1.5166   -0.8484 H   0  0  0  0  0  0  0  0  0  0  0  0
    0.0000    0.0000    0.0000 C   0  0  0  0  0  0  0  0  0  0  0  0
    0.0092   -0.6081   -0.8161 H   0  0  0  0  0  0  0  0  0  0  0  0
    0.0092   -0.6084    0.8163 H   0  0  0  0  0  0  0  0  0  0  0  0
   -1.2664    0.7813   -0.0000 N   0  0  0  0  0  4  0  0  0  0  0  0
   -1.1339    1.6272   -0.5152 H   0  0  0  0  0  0  0  0  0  0  0  0
   -1.9899    0.2398   -0.4269 H   0  0  0  0  0  0  0  0  0  0  0  0
   -1.5215    0.9989    0.9416 H   0  0  0  0  0  0  0  0  0  0  0  0
   -2.0407    4.0111   -1.1895 C   0  0  0  0  0  0  0  0  0  0  0  0
   -1.0173    3.9559   -1.1900 H   0  0  0  0  0  0  0  0  0  0  0  0
   -2.3158    4.0059   -0.2026 H   0  0  0  0  0  0  0  0  0  0  0  0
   -2.3307    4.9695   -1.6202 H   0  0  0  0  0  0  0  0  0  0  0  0
   -2.7604    2.6056   -2.0634 S   0  0  0  0  0  0  0  0  0  0  0  0
   -1.9293    2.7562   -3.6491 C   0  0  0  0  0  0  0  0  0  0  0  0
   -2.4907    2.3335   -4.3611 H   0  0  0  0  0  0  0  0  0  0  0  0
   -1.7918    3.7236   -3.8632 H   0  0  0  0  0  0  0  0  0  0  0  0
   -1.0424    2.2946   -3.6058 H   0  0  0  0  0  0  0  0  0  0  0  0
  1  5  1  0
  5  8  1  0
  1  2  1  0
  1  3  1  0
  1  4  1  0
  5  6  1  0
  5  7  1  0
  8  9  1  0
  8 10  1  0
  8 11  1  0
 12 16  1  0
 16 17  1  0
 12 13  1  0
 12 14  1  0
 12 15  1  0
 17 18  1  0
 17 19  1  0
 17 20  1  0
M  CHG  1   8   1
M  END
>  <PDB_ID>  (1767) 
pdb5mqm

>  <RESIDUE_NAME>  (1767) 
LYS   MET

>  <FRAG_NAME>  (1767) 
ETAM   MSM

>  <FRAG_ATOM_NUM>  (1767) 
fragi: 11  fragj: 9

>  <atom.prop.CHAIN_ID>  (1767) 
A A A A A A A A A A A Z Z Z Z Z Z Z Z Z

>  <atom.prop.IS_HEAVY_ATOM>  (1767) 
1 0 0 0 1 0 0 1 0 0 0 1 0 0 0 1 1 0 0 0

>  <DIFUSE_FUNC_ATOM>  (1767) 
n/a

>  <FINAL_SINGLE_POINT_ENERGY>  (1767) 
0

>  <NONCOV_INTER_ENERGY_QM>  (1767) 
0

>  <FF_Energy>  (1767) 
-4.06

>  <QM_Energy>  (1767) 
-11.59

>  <source>  (1767) 
ETAM_MSM

>  <Index>  (1767) 
11282

$$$$
ETAM-pdb5mwn-D-LYS-71:MSM-pdb5mwn-D-MET-34
     RDKit          3D

 20 18  0  0  0  0  0  0  0  0999 V2000
    1.2382    0.8577   -0.0000 C   0  0  0  0  0  0  0  0  0  0  0  0
    1.0231    1.7322    0.4047 H   0  0  0  0  0  0  0  0  0  0  0  0
    1.5621    0.9549   -0.9274 H   0  0  0  0  0  0  0  0  0  0  0  0
    2.0078    0.3687    0.5972 H   0  0  0  0  0  0  0  0  0  0  0  0
    0.0000    0.0000    0.0000 C   0  0  0  0  0  0  0  0  0  0  0  0
    0.0059   -0.5884   -0.8157 H   0  0  0  0  0  0  0  0  0  0  0  0
    0.0056   -0.5884    0.8164 H   0  0  0  0  0  0  0  0  0  0  0  0
   -1.2382    0.8153   -0.0000 N   0  0  0  0  0  4  0  0  0  0  0  0
   -1.5808    0.9029    0.9365 H   0  0  0  0  0  0  0  0  0  0  0  0
   -1.0397    1.7242   -0.3679 H   0  0  0  0  0  0  0  0  0  0  0  0
   -1.9318    0.3707   -0.5681 H   0  0  0  0  0  0  0  0  0  0  0  0
   -1.2107   -0.3886   -4.4245 C   0  0  0  0  0  0  0  0  0  0  0  0
   -2.0379   -0.4102   -5.0458 H   0  0  0  0  0  0  0  0  0  0  0  0
   -1.2724   -1.2712   -3.8882 H   0  0  0  0  0  0  0  0  0  0  0  0
   -0.3115   -0.4150   -5.0400 H   0  0  0  0  0  0  0  0  0  0  0  0
   -1.2901    1.0242   -3.3214 S   0  0  0  0  0  0  0  0  0  0  0  0
   -1.8370    2.2792   -4.4811 C   0  0  0  0  0  0  0  0  0  0  0  0
   -1.1400    2.4077   -5.1875 H   0  0  0  0  0  0  0  0  0  0  0  0
   -2.6941    1.9893   -4.9084 H   0  0  0  0  0  0  0  0  0  0  0  0
   -1.9826    3.1422   -3.9958 H   0  0  0  0  0  0  0  0  0  0  0  0
  1  5  1  0
  5  8  1  0
  1  2  1  0
  1  3  1  0
  1  4  1  0
  5  6  1  0
  5  7  1  0
  8  9  1  0
  8 10  1  0
  8 11  1  0
 12 16  1  0
 16 17  1  0
 12 13  1  0
 12 14  1  0
 12 15  1  0
 17 18  1  0
 17 19  1  0
 17 20  1  0
M  CHG  1   8   1
M  END
>  <PDB_ID>  (1768) 
pdb5mwn

>  <RESIDUE_NAME>  (1768) 
LYS   MET

>  <FRAG_NAME>  (1768) 
ETAM   MSM

>  <FRAG_ATOM_NUM>  (1768) 
fragi: 11  fragj: 9

>  <atom.prop.CHAIN_ID>  (1768) 
A A A A A A A A A A A Z Z Z Z Z Z Z Z Z

>  <atom.prop.IS_HEAVY_ATOM>  (1768) 
1 0 0 0 1 0 0 1 0 0 0 1 0 0 0 1 1 0 0 0

>  <DIFUSE_FUNC_ATOM>  (1768) 
n/a

>  <FINAL_SINGLE_POINT_ENERGY>  (1768) 
0

>  <NONCOV_INTER_ENERGY_QM>  (1768) 
0

>  <FF_Energy>  (1768) 
-5.78

>  <QM_Energy>  (1768) 
-14.06

>  <source>  (1768) 
ETAM_MSM

>  <Index>  (1768) 
11288

$$$$
ETAM-pdb5mwn-F-LYS-71:MSM-pdb5mwn-F-MET-34
     RDKit          3D

 20 18  0  0  0  0  0  0  0  0999 V2000
    1.2280    0.8800    0.0000 C   0  0  0  0  0  0  0  0  0  0  0  0
    0.9473    1.8182   -0.1205 H   0  0  0  0  0  0  0  0  0  0  0  0
    1.8320    0.5842   -0.7217 H   0  0  0  0  0  0  0  0  0  0  0  0
    1.7365    0.7786    0.9588 H   0  0  0  0  0  0  0  0  0  0  0  0
    0.0000    0.0000    0.0000 C   0  0  0  0  0  0  0  0  0  0  0  0
    0.0170   -0.5819   -0.8162 H   0  0  0  0  0  0  0  0  0  0  0  0
    0.0165   -0.5816    0.8165 H   0  0  0  0  0  0  0  0  0  0  0  0
   -1.2280    0.8120    0.0000 N   0  0  0  0  0  4  0  0  0  0  0  0
   -1.9864    0.2809   -0.3849 H   0  0  0  0  0  0  0  0  0  0  0  0
   -1.4581    1.0807    0.9382 H   0  0  0  0  0  0  0  0  0  0  0  0
   -1.0903    1.6367   -0.5528 H   0  0  0  0  0  0  0  0  0  0  0  0
    1.2223   -1.0631   -4.4304 C   0  0  0  0  0  0  0  0  0  0  0  0
    0.8131   -1.4324   -5.2996 H   0  0  0  0  0  0  0  0  0  0  0  0
    1.3117   -1.8810   -3.8112 H   0  0  0  0  0  0  0  0  0  0  0  0
    2.2202   -0.6843   -4.6510 H   0  0  0  0  0  0  0  0  0  0  0  0
    0.1402    0.1734   -3.6958 S   0  0  0  0  0  0  0  0  0  0  0  0
   -0.2997    1.1244   -5.1516 C   0  0  0  0  0  0  0  0  0  0  0  0
   -0.7350    1.9808   -4.8726 H   0  0  0  0  0  0  0  0  0  0  0  0
    0.5254    1.3273   -5.6806 H   0  0  0  0  0  0  0  0  0  0  0  0
   -0.9349    0.5964   -5.7171 H   0  0  0  0  0  0  0  0  0  0  0  0
  1  5  1  0
  5  8  1  0
  1  2  1  0
  1  3  1  0
  1  4  1  0
  5  6  1  0
  5  7  1  0
  8  9  1  0
  8 10  1  0
  8 11  1  0
 12 16  1  0
 16 17  1  0
 12 13  1  0
 12 14  1  0
 12 15  1  0
 17 18  1  0
 17 19  1  0
 17 20  1  0
M  CHG  1   8   1
M  END
>  <PDB_ID>  (1769) 
pdb5mwn

>  <RESIDUE_NAME>  (1769) 
LYS   MET

>  <FRAG_NAME>  (1769) 
ETAM   MSM

>  <FRAG_ATOM_NUM>  (1769) 
fragi: 11  fragj: 9

>  <atom.prop.CHAIN_ID>  (1769) 
A A A A A A A A A A A Z Z Z Z Z Z Z Z Z

>  <atom.prop.IS_HEAVY_ATOM>  (1769) 
1 0 0 0 1 0 0 1 0 0 0 1 0 0 0 1 1 0 0 0

>  <DIFUSE_FUNC_ATOM>  (1769) 
n/a

>  <FINAL_SINGLE_POINT_ENERGY>  (1769) 
0

>  <NONCOV_INTER_ENERGY_QM>  (1769) 
0

>  <FF_Energy>  (1769) 
-4.99

>  <QM_Energy>  (1769) 
-10.4

>  <source>  (1769) 
ETAM_MSM

>  <Index>  (1769) 
11290

$$$$
ETAM-pdb5myp-B-LYS-227:MSM-pdb5myp-B-MET-362
     RDKit          3D

 20 18  0  0  0  0  0  0  0  0999 V2000
    1.2593    0.8578   -0.0000 C   0  0  0  0  0  0  0  0  0  0  0  0
    1.1953    1.5135   -0.7539 H   0  0  0  0  0  0  0  0  0  0  0  0
    2.0480    0.2600   -0.1462 H   0  0  0  0  0  0  0  0  0  0  0  0
    1.4011    1.4065    0.9311 H   0  0  0  0  0  0  0  0  0  0  0  0
    0.0000    0.0000    0.0000 C   0  0  0  0  0  0  0  0  0  0  0  0
    0.0129   -0.5939   -0.8160 H   0  0  0  0  0  0  0  0  0  0  0  0
    0.0126   -0.5944    0.8163 H   0  0  0  0  0  0  0  0  0  0  0  0
   -1.2593    0.7976   -0.0000 N   0  0  0  0  0  4  0  0  0  0  0  0
   -1.9449    0.3323   -0.5591 H   0  0  0  0  0  0  0  0  0  0  0  0
   -1.5937    0.8865    0.9367 H   0  0  0  0  0  0  0  0  0  0  0  0
   -1.0764    1.7044   -0.3784 H   0  0  0  0  0  0  0  0  0  0  0  0
   -3.2011   -3.1641   -2.2094 C   0  0  0  0  0  0  0  0  0  0  0  0
   -4.1292   -2.7226   -2.2970 H   0  0  0  0  0  0  0  0  0  0  0  0
   -3.3690   -4.1624   -2.4095 H   0  0  0  0  0  0  0  0  0  0  0  0
   -2.5565   -2.7621   -2.9911 H   0  0  0  0  0  0  0  0  0  0  0  0
   -2.5507   -2.9510   -0.5380 S   0  0  0  0  0  0  0  0  0  0  0  0
   -1.0251   -3.8823   -0.6464 C   0  0  0  0  0  0  0  0  0  0  0  0
   -0.9096   -4.2311   -1.5777 H   0  0  0  0  0  0  0  0  0  0  0  0
   -0.2527   -3.2887   -0.4169 H   0  0  0  0  0  0  0  0  0  0  0  0
   -1.0543   -4.6510   -0.0058 H   0  0  0  0  0  0  0  0  0  0  0  0
  1  5  1  0
  5  8  1  0
  1  2  1  0
  1  3  1  0
  1  4  1  0
  5  6  1  0
  5  7  1  0
  8  9  1  0
  8 10  1  0
  8 11  1  0
 12 16  1  0
 16 17  1  0
 12 13  1  0
 12 14  1  0
 12 15  1  0
 17 18  1  0
 17 19  1  0
 17 20  1  0
M  CHG  1   8   1
M  END
>  <PDB_ID>  (1770) 
pdb5myp

>  <RESIDUE_NAME>  (1770) 
LYS   MET

>  <FRAG_NAME>  (1770) 
ETAM   MSM

>  <FRAG_ATOM_NUM>  (1770) 
fragi: 11  fragj: 9

>  <atom.prop.CHAIN_ID>  (1770) 
A A A A A A A A A A A Z Z Z Z Z Z Z Z Z

>  <atom.prop.IS_HEAVY_ATOM>  (1770) 
1 0 0 0 1 0 0 1 0 0 0 1 0 0 0 1 1 0 0 0

>  <DIFUSE_FUNC_ATOM>  (1770) 
n/a

>  <FINAL_SINGLE_POINT_ENERGY>  (1770) 
0

>  <NONCOV_INTER_ENERGY_QM>  (1770) 
0

>  <FF_Energy>  (1770) 
-4.27

>  <QM_Energy>  (1770) 
-10.15

>  <source>  (1770) 
ETAM_MSM

>  <Index>  (1770) 
11304

$$$$
ETAM-pdb5n1q-A-LYS-15:MSM-pdb5n1q-A-MET-74
     RDKit          3D

 20 18  0  0  0  0  0  0  0  0999 V2000
    1.2438    0.8553    0.0000 C   0  0  0  0  0  0  0  0  0  0  0  0
    0.9758    1.8199   -0.0122 H   0  0  0  0  0  0  0  0  0  0  0  0
    1.7793    0.6517   -0.8210 H   0  0  0  0  0  0  0  0  0  0  0  0
    1.8784    0.6899    0.8706 H   0  0  0  0  0  0  0  0  0  0  0  0
    0.0000    0.0000    0.0000 C   0  0  0  0  0  0  0  0  0  0  0  0
    0.0079   -0.5913   -0.8159 H   0  0  0  0  0  0  0  0  0  0  0  0
    0.0078   -0.5923    0.8167 H   0  0  0  0  0  0  0  0  0  0  0  0
   -1.2438    0.8078    0.0000 N   0  0  0  0  0  4  0  0  0  0  0  0
   -1.7231    0.6834    0.8689 H   0  0  0  0  0  0  0  0  0  0  0  0
   -1.0142    1.7743   -0.1181 H   0  0  0  0  0  0  0  0  0  0  0  0
   -1.8345    0.5120   -0.7508 H   0  0  0  0  0  0  0  0  0  0  0  0
   -2.7641   -1.4803    2.2897 C   0  0  0  0  0  0  0  0  0  0  0  0
   -3.6606   -1.6573    2.7881 H   0  0  0  0  0  0  0  0  0  0  0  0
   -2.8008   -0.4609    2.0841 H   0  0  0  0  0  0  0  0  0  0  0  0
   -1.9347   -1.6780    2.9688 H   0  0  0  0  0  0  0  0  0  0  0  0
   -2.7314   -2.4173    0.7347 S   0  0  0  0  0  0  0  0  0  0  0  0
   -4.4591   -2.3476    0.3816 C   0  0  0  0  0  0  0  0  0  0  0  0
   -4.6484   -2.7540   -0.5181 H   0  0  0  0  0  0  0  0  0  0  0  0
   -4.9782   -2.8541    1.0784 H   0  0  0  0  0  0  0  0  0  0  0  0
   -4.7759   -1.3932    0.3763 H   0  0  0  0  0  0  0  0  0  0  0  0
  1  5  1  0
  5  8  1  0
  1  2  1  0
  1  3  1  0
  1  4  1  0
  5  6  1  0
  5  7  1  0
  8  9  1  0
  8 10  1  0
  8 11  1  0
 12 16  1  0
 16 17  1  0
 12 13  1  0
 12 14  1  0
 12 15  1  0
 17 18  1  0
 17 19  1  0
 17 20  1  0
M  CHG  1   8   1
M  END
>  <PDB_ID>  (1771) 
pdb5n1q

>  <RESIDUE_NAME>  (1771) 
LYS   MET

>  <FRAG_NAME>  (1771) 
ETAM   MSM

>  <FRAG_ATOM_NUM>  (1771) 
fragi: 11  fragj: 9

>  <atom.prop.CHAIN_ID>  (1771) 
A A A A A A A A A A A Z Z Z Z Z Z Z Z Z

>  <atom.prop.IS_HEAVY_ATOM>  (1771) 
1 0 0 0 1 0 0 1 0 0 0 1 0 0 0 1 1 0 0 0

>  <DIFUSE_FUNC_ATOM>  (1771) 
n/a

>  <FINAL_SINGLE_POINT_ENERGY>  (1771) 
0

>  <NONCOV_INTER_ENERGY_QM>  (1771) 
0

>  <FF_Energy>  (1771) 
-3.39

>  <QM_Energy>  (1771) 
-9.33

>  <source>  (1771) 
ETAM_MSM

>  <Index>  (1771) 
11321

$$$$
ETAM-pdb6s7j-A-LYS-51:MSM-pdb6s7j-A-MET-46
     RDKit          3D

 20 18  0  0  0  0  0  0  0  0999 V2000
    1.2555    0.8658    0.0000 C   0  0  0  0  0  0  0  0  0  0  0  0
    2.0046    0.3333    0.3843 H   0  0  0  0  0  0  0  0  0  0  0  0
    1.0821    1.6697    0.5627 H   0  0  0  0  0  0  0  0  0  0  0  0
    1.5268    1.1864   -1.0059 H   0  0  0  0  0  0  0  0  0  0  0  0
    0.0000    0.0000    0.0000 C   0  0  0  0  0  0  0  0  0  0  0  0
    0.0107   -0.5867   -0.8165 H   0  0  0  0  0  0  0  0  0  0  0  0
    0.0104   -0.5875    0.8161 H   0  0  0  0  0  0  0  0  0  0  0  0
   -1.2555    0.8110   -0.0000 N   0  0  0  0  0  4  0  0  0  0  0  0
   -1.3112    1.3292   -0.8515 H   0  0  0  0  0  0  0  0  0  0  0  0
   -2.0414    0.1991    0.0754 H   0  0  0  0  0  0  0  0  0  0  0  0
   -1.2407    1.4385    0.7765 H   0  0  0  0  0  0  0  0  0  0  0  0
    1.6310    3.4458    3.0227 C   0  0  0  0  0  0  0  0  0  0  0  0
    2.2238    2.6537    2.8043 H   0  0  0  0  0  0  0  0  0  0  0  0
    1.8170    3.7077    3.9836 H   0  0  0  0  0  0  0  0  0  0  0  0
    1.8851    4.2773    2.3653 H   0  0  0  0  0  0  0  0  0  0  0  0
   -0.1037    3.0187    2.8073 S   0  0  0  0  0  0  0  0  0  0  0  0
   -0.9032    4.6057    3.0541 C   0  0  0  0  0  0  0  0  0  0  0  0
   -0.3526    5.3264    2.6315 H   0  0  0  0  0  0  0  0  0  0  0  0
   -1.8121    4.5908    2.6346 H   0  0  0  0  0  0  0  0  0  0  0  0
   -0.9921    4.7862    4.0339 H   0  0  0  0  0  0  0  0  0  0  0  0
  1  5  1  0
  5  8  1  0
  1  2  1  0
  1  3  1  0
  1  4  1  0
  5  6  1  0
  5  7  1  0
  8  9  1  0
  8 10  1  0
  8 11  1  0
 12 16  1  0
 16 17  1  0
 12 13  1  0
 12 14  1  0
 12 15  1  0
 17 18  1  0
 17 19  1  0
 17 20  1  0
M  CHG  1   8   1
M  END
>  <PDB_ID>  (1772) 
pdb6s7j

>  <RESIDUE_NAME>  (1772) 
LYS   MET

>  <FRAG_NAME>  (1772) 
ETAM   MSM

>  <FRAG_ATOM_NUM>  (1772) 
fragi: 11  fragj: 9

>  <atom.prop.CHAIN_ID>  (1772) 
A A A A A A A A A A A Z Z Z Z Z Z Z Z Z

>  <atom.prop.IS_HEAVY_ATOM>  (1772) 
1 0 0 0 1 0 0 1 0 0 0 1 0 0 0 1 1 0 0 0

>  <DIFUSE_FUNC_ATOM>  (1772) 
n/a

>  <FINAL_SINGLE_POINT_ENERGY>  (1772) 
0

>  <NONCOV_INTER_ENERGY_QM>  (1772) 
0

>  <FF_Energy>  (1772) 
-5.28

>  <QM_Energy>  (1772) 
-13.57

>  <source>  (1772) 
ETAM_MSM

>  <Index>  (1772) 
11322

$$$$
ETAM-pdb6sgf-A-LYS-95:MSM-pdb6sgf-A-MET-134
     RDKit          3D

 20 18  0  0  0  0  0  0  0  0999 V2000
    1.2567    0.8838    0.0000 C   0  0  0  0  0  0  0  0  0  0  0  0
    1.2772    1.4045    0.8179 H   0  0  0  0  0  0  0  0  0  0  0  0
    1.2286    1.4743   -0.7685 H   0  0  0  0  0  0  0  0  0  0  0  0
    2.1358    0.2417   -0.0547 H   0  0  0  0  0  0  0  0  0  0  0  0
    0.0000    0.0000    0.0000 C   0  0  0  0  0  0  0  0  0  0  0  0
    0.0011   -0.5566   -0.7952 H   0  0  0  0  0  0  0  0  0  0  0  0
    0.0008   -0.5572    0.7941 H   0  0  0  0  0  0  0  0  0  0  0  0
   -1.2567    0.8145   -0.0000 N   0  0  0  0  0  4  0  0  0  0  0  0
   -1.2567    1.3744   -0.6927 H   0  0  0  0  0  0  0  0  0  0  0  0
   -1.9662    0.2806   -0.0613 H   0  0  0  0  0  0  0  0  0  0  0  0
   -1.3138    1.2862    0.7530 H   0  0  0  0  0  0  0  0  0  0  0  0
   -2.2558   -2.4985    3.5923 C   0  0  0  0  0  0  0  0  0  0  0  0
   -2.4106   -3.4481    3.7095 H   0  0  0  0  0  0  0  0  0  0  0  0
   -2.8032   -1.9942    4.2136 H   0  0  0  0  0  0  0  0  0  0  0  0
   -1.2020   -2.2683    3.7488 H   0  0  0  0  0  0  0  0  0  0  0  0
   -2.6868   -2.0289    1.9043 S   0  0  0  0  0  0  0  0  0  0  0  0
   -1.8458   -3.3352    0.9976 C   0  0  0  0  0  0  0  0  0  0  0  0
   -1.9998   -3.2091    0.0473 H   0  0  0  0  0  0  0  0  0  0  0  0
   -0.8960   -3.2905    1.1871 H   0  0  0  0  0  0  0  0  0  0  0  0
   -2.1995   -4.1933    1.2783 H   0  0  0  0  0  0  0  0  0  0  0  0
  1  5  1  0
  5  8  1  0
  1  2  1  0
  1  3  1  0
  1  4  1  0
  5  6  1  0
  5  7  1  0
  8  9  1  0
  8 10  1  0
  8 11  1  0
 12 16  1  0
 16 17  1  0
 12 13  1  0
 12 14  1  0
 12 15  1  0
 17 18  1  0
 17 19  1  0
 17 20  1  0
M  CHG  1   8   1
M  END
>  <PDB_ID>  (1773) 
pdb6sgf

>  <RESIDUE_NAME>  (1773) 
LYS   MET

>  <FRAG_NAME>  (1773) 
ETAM   MSM

>  <FRAG_ATOM_NUM>  (1773) 
fragi: 11  fragj: 9

>  <atom.prop.CHAIN_ID>  (1773) 
A A A A A A A A A A A Z Z Z Z Z Z Z Z Z

>  <atom.prop.IS_HEAVY_ATOM>  (1773) 
1 0 0 0 1 0 0 1 0 0 0 1 0 0 0 1 1 0 0 0

>  <DIFUSE_FUNC_ATOM>  (1773) 
n/a

>  <FINAL_SINGLE_POINT_ENERGY>  (1773) 
0

>  <NONCOV_INTER_ENERGY_QM>  (1773) 
0

>  <FF_Energy>  (1773) 
-4.63

>  <QM_Energy>  (1773) 
-11.17

>  <source>  (1773) 
ETAM_MSM

>  <Index>  (1773) 
11323

$$$$
ETAM-pdb6sgf-C-LYS-95:MSM-pdb6sgf-C-MET-134
     RDKit          3D

 20 18  0  0  0  0  0  0  0  0999 V2000
    1.2442    0.8874    0.0000 C   0  0  0  0  0  0  0  0  0  0  0  0
    1.3503    1.2608    0.8897 H   0  0  0  0  0  0  0  0  0  0  0  0
    1.1084    1.5995   -0.6442 H   0  0  0  0  0  0  0  0  0  0  0  0
    2.1423    0.3292   -0.2648 H   0  0  0  0  0  0  0  0  0  0  0  0
    0.0000    0.0000    0.0000 C   0  0  0  0  0  0  0  0  0  0  0  0
   -0.0029   -0.5568   -0.7942 H   0  0  0  0  0  0  0  0  0  0  0  0
   -0.0040   -0.5560    0.7953 H   0  0  0  0  0  0  0  0  0  0  0  0
   -1.2442    0.8441   -0.0000 N   0  0  0  0  0  4  0  0  0  0  0  0
   -1.3461    1.2362    0.7921 H   0  0  0  0  0  0  0  0  0  0  0  0
   -1.1857    1.4724   -0.6281 H   0  0  0  0  0  0  0  0  0  0  0  0
   -1.9557    0.3367   -0.1649 H   0  0  0  0  0  0  0  0  0  0  0  0
   -1.8394   -2.8268    3.4388 C   0  0  0  0  0  0  0  0  0  0  0  0
   -1.9156   -3.7917    3.4951 H   0  0  0  0  0  0  0  0  0  0  0  0
   -2.3676   -2.4105    4.1382 H   0  0  0  0  0  0  0  0  0  0  0  0
   -0.7945   -2.5441    3.5668 H   0  0  0  0  0  0  0  0  0  0  0  0
   -2.5063   -2.3060    1.8527 S   0  0  0  0  0  0  0  0  0  0  0  0
   -1.7189   -3.4605    0.7012 C   0  0  0  0  0  0  0  0  0  0  0  0
   -2.0007   -3.2470   -0.2026 H   0  0  0  0  0  0  0  0  0  0  0  0
   -0.7558   -3.3736    0.7766 H   0  0  0  0  0  0  0  0  0  0  0  0
   -1.9876   -4.3643    0.9272 H   0  0  0  0  0  0  0  0  0  0  0  0
  1  5  1  0
  5  8  1  0
  1  2  1  0
  1  3  1  0
  1  4  1  0
  5  6  1  0
  5  7  1  0
  8  9  1  0
  8 10  1  0
  8 11  1  0
 12 16  1  0
 16 17  1  0
 12 13  1  0
 12 14  1  0
 12 15  1  0
 17 18  1  0
 17 19  1  0
 17 20  1  0
M  CHG  1   8   1
M  END
>  <PDB_ID>  (1774) 
pdb6sgf

>  <RESIDUE_NAME>  (1774) 
LYS   MET

>  <FRAG_NAME>  (1774) 
ETAM   MSM

>  <FRAG_ATOM_NUM>  (1774) 
fragi: 11  fragj: 9

>  <atom.prop.CHAIN_ID>  (1774) 
A A A A A A A A A A A Z Z Z Z Z Z Z Z Z

>  <atom.prop.IS_HEAVY_ATOM>  (1774) 
1 0 0 0 1 0 0 1 0 0 0 1 0 0 0 1 1 0 0 0

>  <DIFUSE_FUNC_ATOM>  (1774) 
n/a

>  <FINAL_SINGLE_POINT_ENERGY>  (1774) 
0

>  <NONCOV_INTER_ENERGY_QM>  (1774) 
0

>  <FF_Energy>  (1774) 
-4.32

>  <QM_Energy>  (1774) 
-10.22

>  <source>  (1774) 
ETAM_MSM

>  <Index>  (1774) 
11325

$$$$
ETAM-pdb6sgf-D-LYS-95:MSM-pdb6sgf-D-MET-134
     RDKit          3D

 20 18  0  0  0  0  0  0  0  0999 V2000
    1.2318    0.9078   -0.0000 C   0  0  0  0  0  0  0  0  0  0  0  0
    1.2845    1.3598    0.8565 H   0  0  0  0  0  0  0  0  0  0  0  0
    1.1372    1.5585   -0.7134 H   0  0  0  0  0  0  0  0  0  0  0  0
    2.1329    0.3157   -0.1596 H   0  0  0  0  0  0  0  0  0  0  0  0
    0.0000    0.0000    0.0000 C   0  0  0  0  0  0  0  0  0  0  0  0
    0.0043   -0.5566   -0.7945 H   0  0  0  0  0  0  0  0  0  0  0  0
    0.0039   -0.5565    0.7946 H   0  0  0  0  0  0  0  0  0  0  0  0
   -1.2318    0.8197    0.0000 N   0  0  0  0  0  4  0  0  0  0  0  0
   -1.2527    1.3375    0.7233 H   0  0  0  0  0  0  0  0  0  0  0  0
   -1.2546    1.3345   -0.7256 H   0  0  0  0  0  0  0  0  0  0  0  0
   -1.9482    0.2910    0.0017 H   0  0  0  0  0  0  0  0  0  0  0  0
   -1.8905   -2.0667    4.0270 C   0  0  0  0  0  0  0  0  0  0  0  0
   -1.9760   -3.0102    4.2363 H   0  0  0  0  0  0  0  0  0  0  0  0
   -2.4139   -1.5396    4.6501 H   0  0  0  0  0  0  0  0  0  0  0  0
   -0.8433   -1.7687    4.0763 H   0  0  0  0  0  0  0  0  0  0  0  0
   -2.5146   -1.7730    2.3220 S   0  0  0  0  0  0  0  0  0  0  0  0
   -1.7732   -3.1520    1.4924 C   0  0  0  0  0  0  0  0  0  0  0  0
   -2.1919   -3.2604    0.6233 H   0  0  0  0  0  0  0  0  0  0  0  0
   -0.8240   -2.9818    1.3832 H   0  0  0  0  0  0  0  0  0  0  0  0
   -1.9060   -3.9510    2.0254 H   0  0  0  0  0  0  0  0  0  0  0  0
  1  5  1  0
  5  8  1  0
  1  2  1  0
  1  3  1  0
  1  4  1  0
  5  6  1  0
  5  7  1  0
  8  9  1  0
  8 10  1  0
  8 11  1  0
 12 16  1  0
 16 17  1  0
 12 13  1  0
 12 14  1  0
 12 15  1  0
 17 18  1  0
 17 19  1  0
 17 20  1  0
M  CHG  1   8   1
M  END
>  <PDB_ID>  (1775) 
pdb6sgf

>  <RESIDUE_NAME>  (1775) 
LYS   MET

>  <FRAG_NAME>  (1775) 
ETAM   MSM

>  <FRAG_ATOM_NUM>  (1775) 
fragi: 11  fragj: 9

>  <atom.prop.CHAIN_ID>  (1775) 
A A A A A A A A A A A Z Z Z Z Z Z Z Z Z

>  <atom.prop.IS_HEAVY_ATOM>  (1775) 
1 0 0 0 1 0 0 1 0 0 0 1 0 0 0 1 1 0 0 0

>  <DIFUSE_FUNC_ATOM>  (1775) 
n/a

>  <FINAL_SINGLE_POINT_ENERGY>  (1775) 
0

>  <NONCOV_INTER_ENERGY_QM>  (1775) 
0

>  <FF_Energy>  (1775) 
-4.57

>  <QM_Energy>  (1775) 
-11.05

>  <source>  (1775) 
ETAM_MSM

>  <Index>  (1775) 
11327

$$$$
ETAM-pdb6sgf-F-LYS-95:MSM-pdb6sgf-F-MET-134
     RDKit          3D

 20 18  0  0  0  0  0  0  0  0999 V2000
    1.2206    0.8672   -0.0000 C   0  0  0  0  0  0  0  0  0  0  0  0
    1.2066    1.4117    0.8018 H   0  0  0  0  0  0  0  0  0  0  0  0
    1.1902    1.4336   -0.7871 H   0  0  0  0  0  0  0  0  0  0  0  0
    2.1367    0.2767   -0.0179 H   0  0  0  0  0  0  0  0  0  0  0  0
    0.0000    0.0000    0.0000 C   0  0  0  0  0  0  0  0  0  0  0  0
   -0.0074   -0.5570   -0.7944 H   0  0  0  0  0  0  0  0  0  0  0  0
   -0.0065   -0.5563    0.7949 H   0  0  0  0  0  0  0  0  0  0  0  0
   -1.2206    0.8482   -0.0000 N   0  0  0  0  0  4  0  0  0  0  0  0
   -1.1750    1.4474   -0.6567 H   0  0  0  0  0  0  0  0  0  0  0  0
   -1.9433    0.3423   -0.1214 H   0  0  0  0  0  0  0  0  0  0  0  0
   -1.2939    1.2758    0.7766 H   0  0  0  0  0  0  0  0  0  0  0  0
   -2.0414   -2.0689    4.0371 C   0  0  0  0  0  0  0  0  0  0  0  0
   -2.0666   -3.0217    4.2205 H   0  0  0  0  0  0  0  0  0  0  0  0
   -2.6361   -1.5991    4.6415 H   0  0  0  0  0  0  0  0  0  0  0  0
   -1.0243   -1.7039    4.1800 H   0  0  0  0  0  0  0  0  0  0  0  0
   -2.6337   -1.8062    2.3443 S   0  0  0  0  0  0  0  0  0  0  0  0
   -1.9313   -3.2571    1.5586 C   0  0  0  0  0  0  0  0  0  0  0  0
   -2.1409   -3.2364    0.6121 H   0  0  0  0  0  0  0  0  0  0  0  0
   -0.9690   -3.2496    1.6842 H   0  0  0  0  0  0  0  0  0  0  0  0
   -2.3113   -4.0511    1.9645 H   0  0  0  0  0  0  0  0  0  0  0  0
  1  5  1  0
  5  8  1  0
  1  2  1  0
  1  3  1  0
  1  4  1  0
  5  6  1  0
  5  7  1  0
  8  9  1  0
  8 10  1  0
  8 11  1  0
 12 16  1  0
 16 17  1  0
 12 13  1  0
 12 14  1  0
 12 15  1  0
 17 18  1  0
 17 19  1  0
 17 20  1  0
M  CHG  1   8   1
M  END
>  <PDB_ID>  (1776) 
pdb6sgf

>  <RESIDUE_NAME>  (1776) 
LYS   MET

>  <FRAG_NAME>  (1776) 
ETAM   MSM

>  <FRAG_ATOM_NUM>  (1776) 
fragi: 11  fragj: 9

>  <atom.prop.CHAIN_ID>  (1776) 
A A A A A A A A A A A Z Z Z Z Z Z Z Z Z

>  <atom.prop.IS_HEAVY_ATOM>  (1776) 
1 0 0 0 1 0 0 1 0 0 0 1 0 0 0 1 1 0 0 0

>  <DIFUSE_FUNC_ATOM>  (1776) 
n/a

>  <FINAL_SINGLE_POINT_ENERGY>  (1776) 
0

>  <NONCOV_INTER_ENERGY_QM>  (1776) 
0

>  <FF_Energy>  (1776) 
-4.46

>  <QM_Energy>  (1776) 
-10.63

>  <source>  (1776) 
ETAM_MSM

>  <Index>  (1776) 
11329

$$$$
ETAM-pdb6s7j-D-LYS-51:MSM-pdb6s7j-D-MET-46
     RDKit          3D

 20 18  0  0  0  0  0  0  0  0999 V2000
    1.2556    0.8641    0.0000 C   0  0  0  0  0  0  0  0  0  0  0  0
    2.0449    0.2711    0.1318 H   0  0  0  0  0  0  0  0  0  0  0  0
    1.1875    1.5168    0.7498 H   0  0  0  0  0  0  0  0  0  0  0  0
    1.3718    1.4078   -0.9375 H   0  0  0  0  0  0  0  0  0  0  0  0
    0.0000    0.0000    0.0000 C   0  0  0  0  0  0  0  0  0  0  0  0
    0.0046   -0.5835   -0.8160 H   0  0  0  0  0  0  0  0  0  0  0  0
    0.0045   -0.5831    0.8162 H   0  0  0  0  0  0  0  0  0  0  0  0
   -1.2556    0.8249    0.0000 N   0  0  0  0  0  4  0  0  0  0  0  0
   -1.6228    0.8567    0.9271 H   0  0  0  0  0  0  0  0  0  0  0  0
   -1.0387    1.7467   -0.3118 H   0  0  0  0  0  0  0  0  0  0  0  0
   -1.9193    0.4050   -0.6150 H   0  0  0  0  0  0  0  0  0  0  0  0
    0.7673    3.7337    3.1146 C   0  0  0  0  0  0  0  0  0  0  0  0
    1.4276    2.9941    2.8449 H   0  0  0  0  0  0  0  0  0  0  0  0
    1.0508    4.0177    4.0604 H   0  0  0  0  0  0  0  0  0  0  0  0
    0.9150    4.5813    2.4454 H   0  0  0  0  0  0  0  0  0  0  0  0
   -0.9291    3.1080    3.1156 S   0  0  0  0  0  0  0  0  0  0  0  0
   -1.8432    4.5810    2.6884 C   0  0  0  0  0  0  0  0  0  0  0  0
   -2.8007    4.3456    2.5088 H   0  0  0  0  0  0  0  0  0  0  0  0
   -1.8027    5.2365    3.4458 H   0  0  0  0  0  0  0  0  0  0  0  0
   -1.4471    4.9999    1.8681 H   0  0  0  0  0  0  0  0  0  0  0  0
  1  5  1  0
  5  8  1  0
  1  2  1  0
  1  3  1  0
  1  4  1  0
  5  6  1  0
  5  7  1  0
  8  9  1  0
  8 10  1  0
  8 11  1  0
 12 16  1  0
 16 17  1  0
 12 13  1  0
 12 14  1  0
 12 15  1  0
 17 18  1  0
 17 19  1  0
 17 20  1  0
M  CHG  1   8   1
M  END
>  <PDB_ID>  (1777) 
pdb6s7j

>  <RESIDUE_NAME>  (1777) 
LYS   MET

>  <FRAG_NAME>  (1777) 
ETAM   MSM

>  <FRAG_ATOM_NUM>  (1777) 
fragi: 11  fragj: 9

>  <atom.prop.CHAIN_ID>  (1777) 
A A A A A A A A A A A Z Z Z Z Z Z Z Z Z

>  <atom.prop.IS_HEAVY_ATOM>  (1777) 
1 0 0 0 1 0 0 1 0 0 0 1 0 0 0 1 1 0 0 0

>  <DIFUSE_FUNC_ATOM>  (1777) 
n/a

>  <FINAL_SINGLE_POINT_ENERGY>  (1777) 
0

>  <NONCOV_INTER_ENERGY_QM>  (1777) 
0

>  <FF_Energy>  (1777) 
-4.49

>  <QM_Energy>  (1777) 
-11.07

>  <source>  (1777) 
ETAM_MSM

>  <Index>  (1777) 
11331

$$$$
ETAM-pdb6s7j-F-LYS-51:MSM-pdb6s7j-F-MET-46
     RDKit          3D

 20 18  0  0  0  0  0  0  0  0999 V2000
    1.2413    0.9028   -0.0000 C   0  0  0  0  0  0  0  0  0  0  0  0
    2.0181    0.3644    0.3008 H   0  0  0  0  0  0  0  0  0  0  0  0
    1.0761    1.6591    0.6193 H   0  0  0  0  0  0  0  0  0  0  0  0
    1.4453    1.2950   -0.9963 H   0  0  0  0  0  0  0  0  0  0  0  0
    0.0000    0.0000    0.0000 C   0  0  0  0  0  0  0  0  0  0  0  0
    0.0257   -0.5743   -0.8159 H   0  0  0  0  0  0  0  0  0  0  0  0
    0.0257   -0.5745    0.8165 H   0  0  0  0  0  0  0  0  0  0  0  0
   -1.2413    0.8112    0.0000 N   0  0  0  0  0  4  0  0  0  0  0  0
   -1.0066    1.7809    0.0774 H   0  0  0  0  0  0  0  0  0  0  0  0
   -1.7419    0.6570   -0.8529 H   0  0  0  0  0  0  0  0  0  0  0  0
   -1.8149    0.5441    0.7750 H   0  0  0  0  0  0  0  0  0  0  0  0
    1.4061    5.1826    2.1739 C   0  0  0  0  0  0  0  0  0  0  0  0
    1.7782    4.2515    2.3681 H   0  0  0  0  0  0  0  0  0  0  0  0
    1.6416    5.7563    2.9851 H   0  0  0  0  0  0  0  0  0  0  0  0
    1.9061    5.5878    1.2942 H   0  0  0  0  0  0  0  0  0  0  0  0
   -0.3711    5.1197    1.9358 S   0  0  0  0  0  0  0  0  0  0  0  0
   -0.5967    3.4176    1.5537 C   0  0  0  0  0  0  0  0  0  0  0  0
    0.1439    3.0896    0.9555 H   0  0  0  0  0  0  0  0  0  0  0  0
   -0.5946    2.8653    2.3953 H   0  0  0  0  0  0  0  0  0  0  0  0
   -1.4743    3.2765    1.0820 H   0  0  0  0  0  0  0  0  0  0  0  0
  1  5  1  0
  5  8  1  0
  1  2  1  0
  1  3  1  0
  1  4  1  0
  5  6  1  0
  5  7  1  0
  8  9  1  0
  8 10  1  0
  8 11  1  0
 12 16  1  0
 16 17  1  0
 12 13  1  0
 12 14  1  0
 12 15  1  0
 17 18  1  0
 17 19  1  0
 17 20  1  0
M  CHG  1   8   1
M  END
>  <PDB_ID>  (1778) 
pdb6s7j

>  <RESIDUE_NAME>  (1778) 
LYS   MET

>  <FRAG_NAME>  (1778) 
ETAM   MSM

>  <FRAG_ATOM_NUM>  (1778) 
fragi: 11  fragj: 9

>  <atom.prop.CHAIN_ID>  (1778) 
A A A A A A A A A A A Z Z Z Z Z Z Z Z Z

>  <atom.prop.IS_HEAVY_ATOM>  (1778) 
1 0 0 0 1 0 0 1 0 0 0 1 0 0 0 1 1 0 0 0

>  <DIFUSE_FUNC_ATOM>  (1778) 
n/a

>  <FINAL_SINGLE_POINT_ENERGY>  (1778) 
0

>  <NONCOV_INTER_ENERGY_QM>  (1778) 
0

>  <FF_Energy>  (1778) 
7.31

>  <QM_Energy>  (1778) 
1.97

>  <source>  (1778) 
ETAM_MSM

>  <Index>  (1778) 
11333

$$$$
ETAM-pdb6s7j-H-LYS-51:MSM-pdb6s7j-H-MET-46
     RDKit          3D

 20 18  0  0  0  0  0  0  0  0999 V2000
    1.2407    0.8836    0.0000 C   0  0  0  0  0  0  0  0  0  0  0  0
    1.6163    0.9001    0.9217 H   0  0  0  0  0  0  0  0  0  0  0  0
    0.9739    1.8015   -0.2793 H   0  0  0  0  0  0  0  0  0  0  0  0
    2.0022    0.5118   -0.6855 H   0  0  0  0  0  0  0  0  0  0  0  0
    0.0000    0.0000    0.0000 C   0  0  0  0  0  0  0  0  0  0  0  0
    0.0121   -0.5765   -0.8166 H   0  0  0  0  0  0  0  0  0  0  0  0
    0.0121   -0.5760    0.8165 H   0  0  0  0  0  0  0  0  0  0  0  0
   -1.2407    0.8250    0.0000 N   0  0  0  0  0  4  0  0  0  0  0  0
   -1.9829    0.3068   -0.4235 H   0  0  0  0  0  0  0  0  0  0  0  0
   -1.4857    1.0533    0.9414 H   0  0  0  0  0  0  0  0  0  0  0  0
   -1.0795    1.6638   -0.5180 H   0  0  0  0  0  0  0  0  0  0  0  0
    0.7004    5.2855    0.1055 C   0  0  0  0  0  0  0  0  0  0  0  0
    1.2590    4.5565    0.5631 H   0  0  0  0  0  0  0  0  0  0  0  0
    0.7561    6.1012    0.7261 H   0  0  0  0  0  0  0  0  0  0  0  0
    1.1713    5.5380   -0.8446 H   0  0  0  0  0  0  0  0  0  0  0  0
   -1.0087    4.7505   -0.0896 S   0  0  0  0  0  0  0  0  0  0  0  0
   -1.5551    5.7823   -1.4378 C   0  0  0  0  0  0  0  0  0  0  0  0
   -2.2186    5.2834   -2.0000 H   0  0  0  0  0  0  0  0  0  0  0  0
   -1.9878    6.6119   -1.0778 H   0  0  0  0  0  0  0  0  0  0  0  0
   -0.7719    6.0407   -2.0068 H   0  0  0  0  0  0  0  0  0  0  0  0
  1  5  1  0
  5  8  1  0
  1  2  1  0
  1  3  1  0
  1  4  1  0
  5  6  1  0
  5  7  1  0
  8  9  1  0
  8 10  1  0
  8 11  1  0
 12 16  1  0
 16 17  1  0
 12 13  1  0
 12 14  1  0
 12 15  1  0
 17 18  1  0
 17 19  1  0
 17 20  1  0
M  CHG  1   8   1
M  END
>  <PDB_ID>  (1779) 
pdb6s7j

>  <RESIDUE_NAME>  (1779) 
LYS   MET

>  <FRAG_NAME>  (1779) 
ETAM   MSM

>  <FRAG_ATOM_NUM>  (1779) 
fragi: 11  fragj: 9

>  <atom.prop.CHAIN_ID>  (1779) 
A A A A A A A A A A A Z Z Z Z Z Z Z Z Z

>  <atom.prop.IS_HEAVY_ATOM>  (1779) 
1 0 0 0 1 0 0 1 0 0 0 1 0 0 0 1 1 0 0 0

>  <DIFUSE_FUNC_ATOM>  (1779) 
n/a

>  <FINAL_SINGLE_POINT_ENERGY>  (1779) 
0

>  <NONCOV_INTER_ENERGY_QM>  (1779) 
0

>  <FF_Energy>  (1779) 
-4.69

>  <QM_Energy>  (1779) 
-11.81

>  <source>  (1779) 
ETAM_MSM

>  <Index>  (1779) 
11334

$$$$
ETAM-pdb5n2u-A-LYS-82:MSM-pdb5n2u-A-MET-101
     RDKit          3D

 20 18  0  0  0  0  0  0  0  0999 V2000
    1.2439    0.8568   -0.0000 C   0  0  0  0  0  0  0  0  0  0  0  0
    1.0552    1.7035    0.4970 H   0  0  0  0  0  0  0  0  0  0  0  0
    1.4903    1.0706   -0.9449 H   0  0  0  0  0  0  0  0  0  0  0  0
    2.0929    0.3639    0.4738 H   0  0  0  0  0  0  0  0  0  0  0  0
    0.0000    0.0000    0.0000 C   0  0  0  0  0  0  0  0  0  0  0  0
    0.0038   -0.5877   -0.8159 H   0  0  0  0  0  0  0  0  0  0  0  0
    0.0044   -0.5876    0.8164 H   0  0  0  0  0  0  0  0  0  0  0  0
   -1.2439    0.8183   -0.0000 N   0  0  0  0  0  4  0  0  0  0  0  0
   -1.0037    1.7867   -0.0629 H   0  0  0  0  0  0  0  0  0  0  0  0
   -1.8093    0.5619   -0.7840 H   0  0  0  0  0  0  0  0  0  0  0  0
   -1.7497    0.6522    0.8461 H   0  0  0  0  0  0  0  0  0  0  0  0
    1.4734    5.0792    2.5418 C   0  0  0  0  0  0  0  0  0  0  0  0
    1.3700    4.9382    1.5374 H   0  0  0  0  0  0  0  0  0  0  0  0
    2.4600    4.9276    2.7524 H   0  0  0  0  0  0  0  0  0  0  0  0
    1.2035    6.1053    2.7921 H   0  0  0  0  0  0  0  0  0  0  0  0
    0.4510    3.9349    3.4490 S   0  0  0  0  0  0  0  0  0  0  0  0
    1.0928    2.5520    2.9478 C   0  0  0  0  0  0  0  0  0  0  0  0
    0.6445    1.7036    3.3389 H   0  0  0  0  0  0  0  0  0  0  0  0
    1.0533    2.4068    1.9226 H   0  0  0  0  0  0  0  0  0  0  0  0
    2.0957    2.4359    3.1798 H   0  0  0  0  0  0  0  0  0  0  0  0
  1  5  1  0
  5  8  1  0
  1  2  1  0
  1  3  1  0
  1  4  1  0
  5  6  1  0
  5  7  1  0
  8  9  1  0
  8 10  1  0
  8 11  1  0
 12 16  1  0
 16 17  1  0
 12 13  1  0
 12 14  1  0
 12 15  1  0
 17 18  1  0
 17 19  1  0
 17 20  1  0
M  CHG  1   8   1
M  END
>  <PDB_ID>  (1780) 
pdb5n2u

>  <RESIDUE_NAME>  (1780) 
LYS   MET

>  <FRAG_NAME>  (1780) 
ETAM   MSM

>  <FRAG_ATOM_NUM>  (1780) 
fragi: 11  fragj: 9

>  <atom.prop.CHAIN_ID>  (1780) 
A A A A A A A A A A A Z Z Z Z Z Z Z Z Z

>  <atom.prop.IS_HEAVY_ATOM>  (1780) 
1 0 0 0 1 0 0 1 0 0 0 1 0 0 0 1 1 0 0 0

>  <DIFUSE_FUNC_ATOM>  (1780) 
n/a

>  <FINAL_SINGLE_POINT_ENERGY>  (1780) 
0

>  <NONCOV_INTER_ENERGY_QM>  (1780) 
0

>  <FF_Energy>  (1780) 
12.98

>  <QM_Energy>  (1780) 
2.16

>  <source>  (1780) 
ETAM_MSM

>  <Index>  (1780) 
11343

$$$$
ETAM-pdb5n1q-A-LYS-122:MSM-pdb5n1q-E-MET-405
     RDKit          3D

 20 18  0  0  0  0  0  0  0  0999 V2000
    1.2432    0.8592    0.0000 C   0  0  0  0  0  0  0  0  0  0  0  0
    2.0432    0.2683    0.0276 H   0  0  0  0  0  0  0  0  0  0  0  0
    1.2239    1.4539    0.7971 H   0  0  0  0  0  0  0  0  0  0  0  0
    1.2965    1.4774   -0.8962 H   0  0  0  0  0  0  0  0  0  0  0  0
    0.0000    0.0000    0.0000 C   0  0  0  0  0  0  0  0  0  0  0  0
    0.0048   -0.5871   -0.8157 H   0  0  0  0  0  0  0  0  0  0  0  0
    0.0047   -0.5872    0.8168 H   0  0  0  0  0  0  0  0  0  0  0  0
   -1.2432    0.8192   -0.0000 N   0  0  0  0  0  4  0  0  0  0  0  0
   -1.0053    1.7831   -0.1180 H   0  0  0  0  0  0  0  0  0  0  0  0
   -1.8328    0.5254   -0.7510 H   0  0  0  0  0  0  0  0  0  0  0  0
   -1.7206    0.6962    0.8692 H   0  0  0  0  0  0  0  0  0  0  0  0
   -3.5136    0.1117    3.1035 C   0  0  0  0  0  0  0  0  0  0  0  0
   -3.9829    0.8180    3.6725 H   0  0  0  0  0  0  0  0  0  0  0  0
   -3.7706   -0.7920    3.5039 H   0  0  0  0  0  0  0  0  0  0  0  0
   -3.9006    0.1684    2.0860 H   0  0  0  0  0  0  0  0  0  0  0  0
   -1.7153    0.3421    3.1611 S   0  0  0  0  0  0  0  0  0  0  0  0
   -1.4850    0.7253    4.8977 C   0  0  0  0  0  0  0  0  0  0  0  0
   -0.5186    0.6274    5.1371 H   0  0  0  0  0  0  0  0  0  0  0  0
   -1.7776    1.6663    5.0744 H   0  0  0  0  0  0  0  0  0  0  0  0
   -2.0308    0.0972    5.4545 H   0  0  0  0  0  0  0  0  0  0  0  0
  1  5  1  0
  5  8  1  0
  1  2  1  0
  1  3  1  0
  1  4  1  0
  5  6  1  0
  5  7  1  0
  8  9  1  0
  8 10  1  0
  8 11  1  0
 12 16  1  0
 16 17  1  0
 12 13  1  0
 12 14  1  0
 12 15  1  0
 17 18  1  0
 17 19  1  0
 17 20  1  0
M  CHG  1   8   1
M  END
>  <PDB_ID>  (1781) 
pdb5n1q

>  <RESIDUE_NAME>  (1781) 
LYS   MET

>  <FRAG_NAME>  (1781) 
ETAM   MSM

>  <FRAG_ATOM_NUM>  (1781) 
fragi: 11  fragj: 9

>  <atom.prop.CHAIN_ID>  (1781) 
A A A A A A A A A A A Z Z Z Z Z Z Z Z Z

>  <atom.prop.IS_HEAVY_ATOM>  (1781) 
1 0 0 0 1 0 0 1 0 0 0 1 0 0 0 1 1 0 0 0

>  <DIFUSE_FUNC_ATOM>  (1781) 
n/a

>  <FINAL_SINGLE_POINT_ENERGY>  (1781) 
0

>  <NONCOV_INTER_ENERGY_QM>  (1781) 
0

>  <FF_Energy>  (1781) 
-5.42

>  <QM_Energy>  (1781) 
-13.92

>  <source>  (1781) 
ETAM_MSM

>  <Index>  (1781) 
11344

$$$$
ETAM-pdb5n5r-A-LYS-9:MSM-pdb5n5r-A-MET-1
     RDKit          3D

 20 18  0  0  0  0  0  0  0  0999 V2000
    1.2306    0.8918   -0.0000 C   0  0  0  0  0  0  0  0  0  0  0  0
    1.2015    1.4434    0.7975 H   0  0  0  0  0  0  0  0  0  0  0  0
    1.1958    1.4501   -0.7924 H   0  0  0  0  0  0  0  0  0  0  0  0
    2.1609    0.3238   -0.0053 H   0  0  0  0  0  0  0  0  0  0  0  0
    0.0000    0.0000    0.0000 C   0  0  0  0  0  0  0  0  0  0  0  0
    0.0021   -0.5528   -0.7964 H   0  0  0  0  0  0  0  0  0  0  0  0
    0.0024   -0.5524    0.7975 H   0  0  0  0  0  0  0  0  0  0  0  0
   -1.2306    0.8127    0.0000 N   0  0  0  0  0  4  0  0  0  0  0  0
   -1.2545    1.3293    0.7249 H   0  0  0  0  0  0  0  0  0  0  0  0
   -1.2545    1.3294   -0.7244 H   0  0  0  0  0  0  0  0  0  0  0  0
   -1.9451    0.2826    0.0006 H   0  0  0  0  0  0  0  0  0  0  0  0
   -1.5305    1.9801    4.3734 C   0  0  0  0  0  0  0  0  0  0  0  0
   -1.1767    1.2864    4.9521 H   0  0  0  0  0  0  0  0  0  0  0  0
   -2.3644    1.6768    3.9807 H   0  0  0  0  0  0  0  0  0  0  0  0
   -1.7367    2.8616    4.9803 H   0  0  0  0  0  0  0  0  0  0  0  0
   -0.3470    2.2089    3.0185 S   0  0  0  0  0  0  0  0  0  0  0  0
   -1.0146    3.6448    2.1897 C   0  0  0  0  0  0  0  0  0  0  0  0
   -0.4495    3.8620    1.4318 H   0  0  0  0  0  0  0  0  0  0  0  0
   -1.9132    3.4435    1.8848 H   0  0  0  0  0  0  0  0  0  0  0  0
   -1.0342    4.3870    2.8123 H   0  0  0  0  0  0  0  0  0  0  0  0
  1  5  1  0
  5  8  1  0
  1  2  1  0
  1  3  1  0
  1  4  1  0
  5  6  1  0
  5  7  1  0
  8  9  1  0
  8 10  1  0
  8 11  1  0
 12 16  1  0
 16 17  1  0
 12 13  1  0
 12 14  1  0
 12 15  1  0
 17 18  1  0
 17 19  1  0
 17 20  1  0
M  CHG  1   8   1
M  END
>  <PDB_ID>  (1782) 
pdb5n5r

>  <RESIDUE_NAME>  (1782) 
LYS   MET

>  <FRAG_NAME>  (1782) 
ETAM   MSM

>  <FRAG_ATOM_NUM>  (1782) 
fragi: 11  fragj: 9

>  <atom.prop.CHAIN_ID>  (1782) 
A A A A A A A A A A A Z Z Z Z Z Z Z Z Z

>  <atom.prop.IS_HEAVY_ATOM>  (1782) 
1 0 0 0 1 0 0 1 0 0 0 1 0 0 0 1 1 0 0 0

>  <DIFUSE_FUNC_ATOM>  (1782) 
n/a

>  <FINAL_SINGLE_POINT_ENERGY>  (1782) 
0

>  <NONCOV_INTER_ENERGY_QM>  (1782) 
0

>  <FF_Energy>  (1782) 
-4.43

>  <QM_Energy>  (1782) 
-12.67

>  <source>  (1782) 
ETAM_MSM

>  <Index>  (1782) 
11345

$$$$
ETAM-pdb6s7j-A-LYS-177:MSM-pdb6s7j-A-MET-169
     RDKit          3D

 20 18  0  0  0  0  0  0  0  0999 V2000
    1.2614    0.8639   -0.0000 C   0  0  0  0  0  0  0  0  0  0  0  0
    1.2788    1.3958    0.8371 H   0  0  0  0  0  0  0  0  0  0  0  0
    1.2374    1.4553   -0.7950 H   0  0  0  0  0  0  0  0  0  0  0  0
    2.1591    0.2471   -0.0449 H   0  0  0  0  0  0  0  0  0  0  0  0
    0.0000    0.0000    0.0000 C   0  0  0  0  0  0  0  0  0  0  0  0
    0.0127   -0.5896   -0.8159 H   0  0  0  0  0  0  0  0  0  0  0  0
    0.0123   -0.5895    0.8159 H   0  0  0  0  0  0  0  0  0  0  0  0
   -1.2614    0.8047    0.0000 N   0  0  0  0  0  4  0  0  0  0  0  0
   -1.0802    1.6975   -0.4089 H   0  0  0  0  0  0  0  0  0  0  0  0
   -1.9570    0.3238   -0.5317 H   0  0  0  0  0  0  0  0  0  0  0  0
   -1.5759    0.9208    0.9408 H   0  0  0  0  0  0  0  0  0  0  0  0
   -2.5662    2.3135    4.2022 C   0  0  0  0  0  0  0  0  0  0  0  0
   -2.5912    3.2914    4.4922 H   0  0  0  0  0  0  0  0  0  0  0  0
   -2.0772    1.8085    4.9418 H   0  0  0  0  0  0  0  0  0  0  0  0
   -3.5908    1.9447    4.1531 H   0  0  0  0  0  0  0  0  0  0  0  0
   -1.7185    2.1291    2.6266 S   0  0  0  0  0  0  0  0  0  0  0  0
   -2.5881    3.3764    1.6549 C   0  0  0  0  0  0  0  0  0  0  0  0
   -2.3062    4.2853    1.9578 H   0  0  0  0  0  0  0  0  0  0  0  0
   -2.3619    3.2579    0.6893 H   0  0  0  0  0  0  0  0  0  0  0  0
   -3.5725    3.2685    1.7864 H   0  0  0  0  0  0  0  0  0  0  0  0
  1  5  1  0
  5  8  1  0
  1  2  1  0
  1  3  1  0
  1  4  1  0
  5  6  1  0
  5  7  1  0
  8  9  1  0
  8 10  1  0
  8 11  1  0
 12 16  1  0
 16 17  1  0
 12 13  1  0
 12 14  1  0
 12 15  1  0
 17 18  1  0
 17 19  1  0
 17 20  1  0
M  CHG  1   8   1
M  END
>  <PDB_ID>  (1783) 
pdb6s7j

>  <RESIDUE_NAME>  (1783) 
LYS   MET

>  <FRAG_NAME>  (1783) 
ETAM   MSM

>  <FRAG_ATOM_NUM>  (1783) 
fragi: 11  fragj: 9

>  <atom.prop.CHAIN_ID>  (1783) 
A A A A A A A A A A A Z Z Z Z Z Z Z Z Z

>  <atom.prop.IS_HEAVY_ATOM>  (1783) 
1 0 0 0 1 0 0 1 0 0 0 1 0 0 0 1 1 0 0 0

>  <DIFUSE_FUNC_ATOM>  (1783) 
n/a

>  <FINAL_SINGLE_POINT_ENERGY>  (1783) 
0

>  <NONCOV_INTER_ENERGY_QM>  (1783) 
0

>  <FF_Energy>  (1783) 
-2.45

>  <QM_Energy>  (1783) 
-13.14

>  <source>  (1783) 
ETAM_MSM

>  <Index>  (1783) 
11348

$$$$
ETAM-pdb6su9-A-LYS-95:MSM-pdb6su9-A-MET-92
     RDKit          3D

 20 18  0  0  0  0  0  0  0  0999 V2000
    1.2661    0.8782    0.0000 C   0  0  0  0  0  0  0  0  0  0  0  0
    1.1390    1.6048    0.6635 H   0  0  0  0  0  0  0  0  0  0  0  0
    1.3840    1.2512   -0.9116 H   0  0  0  0  0  0  0  0  0  0  0  0
    2.1526    0.3032    0.2674 H   0  0  0  0  0  0  0  0  0  0  0  0
    0.0000    0.0000    0.0000 C   0  0  0  0  0  0  0  0  0  0  0  0
    0.0150   -0.5828   -0.8167 H   0  0  0  0  0  0  0  0  0  0  0  0
    0.0148   -0.5821    0.8164 H   0  0  0  0  0  0  0  0  0  0  0  0
   -1.2661    0.8124    0.0000 N   0  0  0  0  0  4  0  0  0  0  0  0
   -1.7791    0.6115    0.8313 H   0  0  0  0  0  0  0  0  0  0  0  0
   -1.0290    1.7808   -0.0292 H   0  0  0  0  0  0  0  0  0  0  0  0
   -1.8071    0.5693   -0.8017 H   0  0  0  0  0  0  0  0  0  0  0  0
    0.1740    0.4366   -5.0467 C   0  0  0  0  0  0  0  0  0  0  0  0
   -0.6018    0.5650   -5.6808 H   0  0  0  0  0  0  0  0  0  0  0  0
    0.2618   -0.5523   -4.8610 H   0  0  0  0  0  0  0  0  0  0  0  0
    1.0891    0.8055   -5.5100 H   0  0  0  0  0  0  0  0  0  0  0  0
   -0.0952    1.3447   -3.5247 S   0  0  0  0  0  0  0  0  0  0  0  0
   -0.6826    2.9337   -4.0545 C   0  0  0  0  0  0  0  0  0  0  0  0
    0.0812    3.5829   -4.1051 H   0  0  0  0  0  0  0  0  0  0  0  0
   -1.1069    2.8591   -4.9608 H   0  0  0  0  0  0  0  0  0  0  0  0
   -1.3630    3.2830   -3.4043 H   0  0  0  0  0  0  0  0  0  0  0  0
  1  5  1  0
  5  8  1  0
  1  2  1  0
  1  3  1  0
  1  4  1  0
  5  6  1  0
  5  7  1  0
  8  9  1  0
  8 10  1  0
  8 11  1  0
 12 16  1  0
 16 17  1  0
 12 13  1  0
 12 14  1  0
 12 15  1  0
 17 18  1  0
 17 19  1  0
 17 20  1  0
M  CHG  1   8   1
M  END
>  <PDB_ID>  (1784) 
pdb6su9

>  <RESIDUE_NAME>  (1784) 
LYS   MET

>  <FRAG_NAME>  (1784) 
ETAM   MSM

>  <FRAG_ATOM_NUM>  (1784) 
fragi: 11  fragj: 9

>  <atom.prop.CHAIN_ID>  (1784) 
A A A A A A A A A A A Z Z Z Z Z Z Z Z Z

>  <atom.prop.IS_HEAVY_ATOM>  (1784) 
1 0 0 0 1 0 0 1 0 0 0 1 0 0 0 1 1 0 0 0

>  <DIFUSE_FUNC_ATOM>  (1784) 
n/a

>  <FINAL_SINGLE_POINT_ENERGY>  (1784) 
0

>  <NONCOV_INTER_ENERGY_QM>  (1784) 
0

>  <FF_Energy>  (1784) 
-5.17

>  <QM_Energy>  (1784) 
-12.22

>  <source>  (1784) 
ETAM_MSM

>  <Index>  (1784) 
11355

$$$$
ETAM-pdb5naf-C-LYS-343:MSM-pdb5naf-C-MET-378
     RDKit          3D

 20 18  0  0  0  0  0  0  0  0999 V2000
    1.2319    0.8750   -0.0000 C   0  0  0  0  0  0  0  0  0  0  0  0
    1.2161    1.4524    0.8163 H   0  0  0  0  0  0  0  0  0  0  0  0
    1.2158    1.4522   -0.8170 H   0  0  0  0  0  0  0  0  0  0  0  0
    2.1559    0.2968    0.0002 H   0  0  0  0  0  0  0  0  0  0  0  0
    0.0000    0.0000    0.0000 C   0  0  0  0  0  0  0  0  0  0  0  0
    0.0078   -0.5781   -0.8166 H   0  0  0  0  0  0  0  0  0  0  0  0
    0.0071   -0.5780    0.8166 H   0  0  0  0  0  0  0  0  0  0  0  0
   -1.2319    0.8290    0.0000 N   0  0  0  0  0  4  0  0  0  0  0  0
   -0.9897    1.7859   -0.1621 H   0  0  0  0  0  0  0  0  0  0  0  0
   -1.8460    0.5140   -0.7241 H   0  0  0  0  0  0  0  0  0  0  0  0
   -1.6892    0.7460    0.8857 H   0  0  0  0  0  0  0  0  0  0  0  0
    0.4657    3.0864    4.0803 C   0  0  0  0  0  0  0  0  0  0  0  0
   -0.1489    3.8697    3.9915 H   0  0  0  0  0  0  0  0  0  0  0  0
    1.1079    3.2499    4.8293 H   0  0  0  0  0  0  0  0  0  0  0  0
   -0.1096    2.1808    4.2728 H   0  0  0  0  0  0  0  0  0  0  0  0
    1.3801    2.8293    2.5174 S   0  0  0  0  0  0  0  0  0  0  0  0
    2.3634    1.3950    2.9664 C   0  0  0  0  0  0  0  0  0  0  0  0
    3.2737    1.4742    2.5586 H   0  0  0  0  0  0  0  0  0  0  0  0
    2.4473    1.3470    3.9622 H   0  0  0  0  0  0  0  0  0  0  0  0
    1.9175    0.5661    2.6286 H   0  0  0  0  0  0  0  0  0  0  0  0
  1  5  1  0
  5  8  1  0
  1  2  1  0
  1  3  1  0
  1  4  1  0
  5  6  1  0
  5  7  1  0
  8  9  1  0
  8 10  1  0
  8 11  1  0
 12 16  1  0
 16 17  1  0
 12 13  1  0
 12 14  1  0
 12 15  1  0
 17 18  1  0
 17 19  1  0
 17 20  1  0
M  CHG  1   8   1
M  END
>  <PDB_ID>  (1785) 
pdb5naf

>  <RESIDUE_NAME>  (1785) 
LYS   MET

>  <FRAG_NAME>  (1785) 
ETAM   MSM

>  <FRAG_ATOM_NUM>  (1785) 
fragi: 11  fragj: 9

>  <atom.prop.CHAIN_ID>  (1785) 
A A A A A A A A A A A Z Z Z Z Z Z Z Z Z

>  <atom.prop.IS_HEAVY_ATOM>  (1785) 
1 0 0 0 1 0 0 1 0 0 0 1 0 0 0 1 1 0 0 0

>  <DIFUSE_FUNC_ATOM>  (1785) 
n/a

>  <FINAL_SINGLE_POINT_ENERGY>  (1785) 
0

>  <NONCOV_INTER_ENERGY_QM>  (1785) 
0

>  <FF_Energy>  (1785) 
13.97

>  <QM_Energy>  (1785) 
-3.15

>  <source>  (1785) 
ETAM_MSM

>  <Index>  (1785) 
11358

$$$$
ETAM-pdb5naf-D-LYS-343:MSM-pdb5naf-D-MET-378
     RDKit          3D

 20 18  0  0  0  0  0  0  0  0999 V2000
    1.2324    0.8752   -0.0000 C   0  0  0  0  0  0  0  0  0  0  0  0
    1.2153    1.4529    0.8164 H   0  0  0  0  0  0  0  0  0  0  0  0
    1.2154    1.4531   -0.8164 H   0  0  0  0  0  0  0  0  0  0  0  0
    2.1565    0.2972    0.0006 H   0  0  0  0  0  0  0  0  0  0  0  0
    0.0000    0.0000    0.0000 C   0  0  0  0  0  0  0  0  0  0  0  0
    0.0074   -0.5780   -0.8166 H   0  0  0  0  0  0  0  0  0  0  0  0
    0.0073   -0.5782    0.8163 H   0  0  0  0  0  0  0  0  0  0  0  0
   -1.2324    0.8289   -0.0000 N   0  0  0  0  0  4  0  0  0  0  0  0
   -1.8384    0.5249   -0.7350 H   0  0  0  0  0  0  0  0  0  0  0  0
   -1.6984    0.7324    0.8792 H   0  0  0  0  0  0  0  0  0  0  0  0
   -0.9881    1.7888   -0.1447 H   0  0  0  0  0  0  0  0  0  0  0  0
   -0.3700    5.3195   -0.0569 C   0  0  0  0  0  0  0  0  0  0  0  0
   -0.9866    5.4872   -0.8263 H   0  0  0  0  0  0  0  0  0  0  0  0
    0.0886    6.1716    0.1934 H   0  0  0  0  0  0  0  0  0  0  0  0
   -0.9300    4.9308    0.7936 H   0  0  0  0  0  0  0  0  0  0  0  0
    0.8698    4.0550   -0.5159 S   0  0  0  0  0  0  0  0  0  0  0  0
    1.7999    3.9621    1.0173 C   0  0  0  0  0  0  0  0  0  0  0  0
    1.7630    3.0284    1.3741 H   0  0  0  0  0  0  0  0  0  0  0  0
    2.7520    4.2166    0.8457 H   0  0  0  0  0  0  0  0  0  0  0  0
    1.4033    4.5909    1.6860 H   0  0  0  0  0  0  0  0  0  0  0  0
  1  5  1  0
  5  8  1  0
  1  2  1  0
  1  3  1  0
  1  4  1  0
  5  6  1  0
  5  7  1  0
  8  9  1  0
  8 10  1  0
  8 11  1  0
 12 16  1  0
 16 17  1  0
 12 13  1  0
 12 14  1  0
 12 15  1  0
 17 18  1  0
 17 19  1  0
 17 20  1  0
M  CHG  1   8   1
M  END
>  <PDB_ID>  (1786) 
pdb5naf

>  <RESIDUE_NAME>  (1786) 
LYS   MET

>  <FRAG_NAME>  (1786) 
ETAM   MSM

>  <FRAG_ATOM_NUM>  (1786) 
fragi: 11  fragj: 9

>  <atom.prop.CHAIN_ID>  (1786) 
A A A A A A A A A A A Z Z Z Z Z Z Z Z Z

>  <atom.prop.IS_HEAVY_ATOM>  (1786) 
1 0 0 0 1 0 0 1 0 0 0 1 0 0 0 1 1 0 0 0

>  <DIFUSE_FUNC_ATOM>  (1786) 
n/a

>  <FINAL_SINGLE_POINT_ENERGY>  (1786) 
0

>  <NONCOV_INTER_ENERGY_QM>  (1786) 
0

>  <FF_Energy>  (1786) 
3.01

>  <QM_Energy>  (1786) 
-7.58

>  <source>  (1786) 
ETAM_MSM

>  <Index>  (1786) 
11359

$$$$
ETAM-pdb6qyh-B-LYS-322:MSM-pdb6qyh-A-MET-486
     RDKit          3D

 20 18  0  0  0  0  0  0  0  0999 V2000
    1.2473    0.8713    0.0000 C   0  0  0  0  0  0  0  0  0  0  0  0
    1.1854    1.5153   -0.7526 H   0  0  0  0  0  0  0  0  0  0  0  0
    2.0425    0.2869   -0.1023 H   0  0  0  0  0  0  0  0  0  0  0  0
    1.3357    1.4283    0.9328 H   0  0  0  0  0  0  0  0  0  0  0  0
    0.0000    0.0000    0.0000 C   0  0  0  0  0  0  0  0  0  0  0  0
    0.0155   -0.5869   -0.8164 H   0  0  0  0  0  0  0  0  0  0  0  0
    0.0147   -0.5872    0.8168 H   0  0  0  0  0  0  0  0  0  0  0  0
   -1.2473    0.8059   -0.0000 N   0  0  0  0  0  4  0  0  0  0  0  0
   -1.8809    0.4395   -0.6811 H   0  0  0  0  0  0  0  0  0  0  0  0
   -1.6705    0.7647    0.9050 H   0  0  0  0  0  0  0  0  0  0  0  0
   -1.0303    1.7559   -0.2234 H   0  0  0  0  0  0  0  0  0  0  0  0
   -1.8568    4.8073   -0.6326 C   0  0  0  0  0  0  0  0  0  0  0  0
   -2.5315    4.8141    0.1329 H   0  0  0  0  0  0  0  0  0  0  0  0
   -2.1998    4.1267   -1.3106 H   0  0  0  0  0  0  0  0  0  0  0  0
   -1.8270    5.7939   -1.0951 H   0  0  0  0  0  0  0  0  0  0  0  0
   -0.2174    4.3054   -0.0176 S   0  0  0  0  0  0  0  0  0  0  0  0
   -0.1200    5.2662    1.5115 C   0  0  0  0  0  0  0  0  0  0  0  0
    0.8397    5.4035    1.7512 H   0  0  0  0  0  0  0  0  0  0  0  0
   -0.5634    6.1494    1.3719 H   0  0  0  0  0  0  0  0  0  0  0  0
   -0.5832    4.7666    2.2416 H   0  0  0  0  0  0  0  0  0  0  0  0
  1  5  1  0
  5  8  1  0
  1  2  1  0
  1  3  1  0
  1  4  1  0
  5  6  1  0
  5  7  1  0
  8  9  1  0
  8 10  1  0
  8 11  1  0
 12 16  1  0
 16 17  1  0
 12 13  1  0
 12 14  1  0
 12 15  1  0
 17 18  1  0
 17 19  1  0
 17 20  1  0
M  CHG  1   8   1
M  END
>  <PDB_ID>  (1787) 
pdb6qyh

>  <RESIDUE_NAME>  (1787) 
LYS   MET

>  <FRAG_NAME>  (1787) 
ETAM   MSM

>  <FRAG_ATOM_NUM>  (1787) 
fragi: 11  fragj: 9

>  <atom.prop.CHAIN_ID>  (1787) 
A A A A A A A A A A A Z Z Z Z Z Z Z Z Z

>  <atom.prop.IS_HEAVY_ATOM>  (1787) 
1 0 0 0 1 0 0 1 0 0 0 1 0 0 0 1 1 0 0 0

>  <DIFUSE_FUNC_ATOM>  (1787) 
n/a

>  <FINAL_SINGLE_POINT_ENERGY>  (1787) 
0

>  <NONCOV_INTER_ENERGY_QM>  (1787) 
0

>  <FF_Energy>  (1787) 
-4.97

>  <QM_Energy>  (1787) 
-12.94

>  <source>  (1787) 
ETAM_MSM

>  <Index>  (1787) 
11361

$$$$
ETAM-pdb6uds-B-LYS-167:MSM-pdb6uds-A-MET-243
     RDKit          3D

 20 18  0  0  0  0  0  0  0  0999 V2000
    1.2320    0.8926   -0.0000 C   0  0  0  0  0  0  0  0  0  0  0  0
    2.0211    0.3344    0.0804 H   0  0  0  0  0  0  0  0  0  0  0  0
    1.1771    1.4990    0.7549 H   0  0  0  0  0  0  0  0  0  0  0  0
    1.2805    1.4645   -0.9267 H   0  0  0  0  0  0  0  0  0  0  0  0
    0.0000    0.0000    0.0000 C   0  0  0  0  0  0  0  0  0  0  0  0
    0.0277   -0.5580   -0.7912 H   0  0  0  0  0  0  0  0  0  0  0  0
    0.0001   -0.5537    0.7954 H   0  0  0  0  0  0  0  0  0  0  0  0
   -1.2320    0.8300    0.0000 N   0  0  0  0  0  4  0  0  0  0  0  0
   -1.6002    0.8802   -0.9282 H   0  0  0  0  0  0  0  0  0  0  0  0
   -1.9111    0.4175    0.6073 H   0  0  0  0  0  0  0  0  0  0  0  0
   -1.0118    1.7514    0.3222 H   0  0  0  0  0  0  0  0  0  0  0  0
   -4.1037    2.3193   -1.8079 C   0  0  0  0  0  0  0  0  0  0  0  0
   -4.5102    3.1106   -2.1931 H   0  0  0  0  0  0  0  0  0  0  0  0
   -3.9736    2.4435   -0.8549 H   0  0  0  0  0  0  0  0  0  0  0  0
   -4.7635    1.4665   -1.9676 H   0  0  0  0  0  0  0  0  0  0  0  0
   -2.4864    2.0957   -2.5680 S   0  0  0  0  0  0  0  0  0  0  0  0
   -1.6851    3.6229   -2.0899 C   0  0  0  0  0  0  0  0  0  0  0  0
   -0.7804    3.6273   -2.4400 H   0  0  0  0  0  0  0  0  0  0  0  0
   -2.1853    4.3689   -2.4542 H   0  0  0  0  0  0  0  0  0  0  0  0
   -1.6652    3.6787   -1.1218 H   0  0  0  0  0  0  0  0  0  0  0  0
  1  5  1  0
  5  8  1  0
  1  2  1  0
  1  3  1  0
  1  4  1  0
  5  6  1  0
  5  7  1  0
  8  9  1  0
  8 10  1  0
  8 11  1  0
 12 16  1  0
 16 17  1  0
 12 13  1  0
 12 14  1  0
 12 15  1  0
 17 18  1  0
 17 19  1  0
 17 20  1  0
M  CHG  1   8   1
M  END
>  <PDB_ID>  (1788) 
pdb6uds

>  <RESIDUE_NAME>  (1788) 
LYS   MET

>  <FRAG_NAME>  (1788) 
ETAM   MSM

>  <FRAG_ATOM_NUM>  (1788) 
fragi: 11  fragj: 9

>  <atom.prop.CHAIN_ID>  (1788) 
A A A A A A A A A A A Z Z Z Z Z Z Z Z Z

>  <atom.prop.IS_HEAVY_ATOM>  (1788) 
1 0 0 0 1 0 0 1 0 0 0 1 0 0 0 1 1 0 0 0

>  <DIFUSE_FUNC_ATOM>  (1788) 
n/a

>  <FINAL_SINGLE_POINT_ENERGY>  (1788) 
0

>  <NONCOV_INTER_ENERGY_QM>  (1788) 
0

>  <FF_Energy>  (1788) 
-3.6

>  <QM_Energy>  (1788) 
-14.5

>  <source>  (1788) 
ETAM_MSM

>  <Index>  (1788) 
11371

$$$$
ETAM-pdb5ndy-E-LYS-119:MSM-pdb5ndy-A-MET-161
     RDKit          3D

 20 18  0  0  0  0  0  0  0  0999 V2000
    1.2528    0.8731   -0.0000 C   0  0  0  0  0  0  0  0  0  0  0  0
    2.0387    0.2997   -0.2046 H   0  0  0  0  0  0  0  0  0  0  0  0
    1.3504    1.2875    0.8992 H   0  0  0  0  0  0  0  0  0  0  0  0
    1.1965    1.6659   -0.7458 H   0  0  0  0  0  0  0  0  0  0  0  0
    0.0000    0.0000    0.0000 C   0  0  0  0  0  0  0  0  0  0  0  0
    0.0062   -0.5786   -0.8164 H   0  0  0  0  0  0  0  0  0  0  0  0
    0.0060   -0.5783    0.8162 H   0  0  0  0  0  0  0  0  0  0  0  0
   -1.2528    0.8301    0.0000 N   0  0  0  0  0  4  0  0  0  0  0  0
   -1.4913    1.0573    0.9409 H   0  0  0  0  0  0  0  0  0  0  0  0
   -1.0887    1.6648   -0.5210 H   0  0  0  0  0  0  0  0  0  0  0  0
   -1.9895    0.3055   -0.4206 H   0  0  0  0  0  0  0  0  0  0  0  0
    1.8032    1.3845    3.9464 C   0  0  0  0  0  0  0  0  0  0  0  0
    1.5696    0.4675    3.5211 H   0  0  0  0  0  0  0  0  0  0  0  0
    1.3838    1.3305    4.8946 H   0  0  0  0  0  0  0  0  0  0  0  0
    2.8860    1.4325    4.0612 H   0  0  0  0  0  0  0  0  0  0  0  0
    1.0345    2.7413    2.9903 S   0  0  0  0  0  0  0  0  0  0  0  0
    1.1377    4.0607    4.1778 C   0  0  0  0  0  0  0  0  0  0  0  0
    2.0843    4.1626    4.4951 H   0  0  0  0  0  0  0  0  0  0  0  0
    0.8390    4.9222    3.7588 H   0  0  0  0  0  0  0  0  0  0  0  0
    0.5495    3.8596    4.9648 H   0  0  0  0  0  0  0  0  0  0  0  0
  1  5  1  0
  5  8  1  0
  1  2  1  0
  1  3  1  0
  1  4  1  0
  5  6  1  0
  5  7  1  0
  8  9  1  0
  8 10  1  0
  8 11  1  0
 12 16  1  0
 16 17  1  0
 12 13  1  0
 12 14  1  0
 12 15  1  0
 17 18  1  0
 17 19  1  0
 17 20  1  0
M  CHG  1   8   1
M  END
>  <PDB_ID>  (1789) 
pdb5ndy

>  <RESIDUE_NAME>  (1789) 
LYS   MET

>  <FRAG_NAME>  (1789) 
ETAM   MSM

>  <FRAG_ATOM_NUM>  (1789) 
fragi: 11  fragj: 9

>  <atom.prop.CHAIN_ID>  (1789) 
A A A A A A A A A A A Z Z Z Z Z Z Z Z Z

>  <atom.prop.IS_HEAVY_ATOM>  (1789) 
1 0 0 0 1 0 0 1 0 0 0 1 0 0 0 1 1 0 0 0

>  <DIFUSE_FUNC_ATOM>  (1789) 
n/a

>  <FINAL_SINGLE_POINT_ENERGY>  (1789) 
0

>  <NONCOV_INTER_ENERGY_QM>  (1789) 
0

>  <FF_Energy>  (1789) 
-2.82

>  <QM_Energy>  (1789) 
-8.35

>  <source>  (1789) 
ETAM_MSM

>  <Index>  (1789) 
11373

$$$$
ETAM-pdb5ndy-D-LYS-119:MSM-pdb5ndy-C-MET-161
     RDKit          3D

 20 18  0  0  0  0  0  0  0  0999 V2000
    1.2562    0.8651    0.0000 C   0  0  0  0  0  0  0  0  0  0  0  0
    1.8781    0.5134    0.6936 H   0  0  0  0  0  0  0  0  0  0  0  0
    0.9917    1.8005    0.2180 H   0  0  0  0  0  0  0  0  0  0  0  0
    1.7557    0.8501   -0.9687 H   0  0  0  0  0  0  0  0  0  0  0  0
    0.0000    0.0000    0.0000 C   0  0  0  0  0  0  0  0  0  0  0  0
    0.0052   -0.5826   -0.8160 H   0  0  0  0  0  0  0  0  0  0  0  0
    0.0048   -0.5829    0.8165 H   0  0  0  0  0  0  0  0  0  0  0  0
   -1.2562    0.8245   -0.0000 N   0  0  0  0  0  4  0  0  0  0  0  0
   -1.6666    0.7898    0.9078 H   0  0  0  0  0  0  0  0  0  0  0  0
   -1.0265    1.7662   -0.2336 H   0  0  0  0  0  0  0  0  0  0  0  0
   -1.8896    0.4512   -0.6744 H   0  0  0  0  0  0  0  0  0  0  0  0
    0.9060   -2.4650    2.7684 C   0  0  0  0  0  0  0  0  0  0  0  0
    0.0152   -2.1551    2.3648 H   0  0  0  0  0  0  0  0  0  0  0  0
    0.7567   -2.4772    3.7833 H   0  0  0  0  0  0  0  0  0  0  0  0
    1.0877   -3.4884    2.4399 H   0  0  0  0  0  0  0  0  0  0  0  0
    2.2411   -1.3383    2.3268 S   0  0  0  0  0  0  0  0  0  0  0  0
    3.3962   -1.5931    3.6840 C   0  0  0  0  0  0  0  0  0  0  0  0
    4.3268   -1.6361    3.3232 H   0  0  0  0  0  0  0  0  0  0  0  0
    3.3219   -0.8333    4.3299 H   0  0  0  0  0  0  0  0  0  0  0  0
    3.1772   -2.4505    4.1489 H   0  0  0  0  0  0  0  0  0  0  0  0
  1  5  1  0
  5  8  1  0
  1  2  1  0
  1  3  1  0
  1  4  1  0
  5  6  1  0
  5  7  1  0
  8  9  1  0
  8 10  1  0
  8 11  1  0
 12 16  1  0
 16 17  1  0
 12 13  1  0
 12 14  1  0
 12 15  1  0
 17 18  1  0
 17 19  1  0
 17 20  1  0
M  CHG  1   8   1
M  END
>  <PDB_ID>  (1790) 
pdb5ndy

>  <RESIDUE_NAME>  (1790) 
LYS   MET

>  <FRAG_NAME>  (1790) 
ETAM   MSM

>  <FRAG_ATOM_NUM>  (1790) 
fragi: 11  fragj: 9

>  <atom.prop.CHAIN_ID>  (1790) 
A A A A A A A A A A A Z Z Z Z Z Z Z Z Z

>  <atom.prop.IS_HEAVY_ATOM>  (1790) 
1 0 0 0 1 0 0 1 0 0 0 1 0 0 0 1 1 0 0 0

>  <DIFUSE_FUNC_ATOM>  (1790) 
n/a

>  <FINAL_SINGLE_POINT_ENERGY>  (1790) 
0

>  <NONCOV_INTER_ENERGY_QM>  (1790) 
0

>  <FF_Energy>  (1790) 
0.27

>  <QM_Energy>  (1790) 
-5.66

>  <source>  (1790) 
ETAM_MSM

>  <Index>  (1790) 
11374

$$$$
ETAM-pdb5ndy-A-LYS-119:MSM-pdb5ndy-E-MET-161
     RDKit          3D

 20 18  0  0  0  0  0  0  0  0999 V2000
    1.2331    0.8858    0.0000 C   0  0  0  0  0  0  0  0  0  0  0  0
    0.9654    1.7953    0.2879 H   0  0  0  0  0  0  0  0  0  0  0  0
    1.6077    0.8996   -0.9174 H   0  0  0  0  0  0  0  0  0  0  0  0
    1.9752    0.4881    0.6923 H   0  0  0  0  0  0  0  0  0  0  0  0
    0.0000    0.0000    0.0000 C   0  0  0  0  0  0  0  0  0  0  0  0
    0.0154   -0.5773   -0.8160 H   0  0  0  0  0  0  0  0  0  0  0  0
    0.0148   -0.5765    0.8165 H   0  0  0  0  0  0  0  0  0  0  0  0
   -1.2331    0.8211    0.0000 N   0  0  0  0  0  4  0  0  0  0  0  0
   -1.0522    1.6975   -0.4485 H   0  0  0  0  0  0  0  0  0  0  0  0
   -1.9571    0.3382   -0.4939 H   0  0  0  0  0  0  0  0  0  0  0  0
   -1.5268    0.9851    0.9429 H   0  0  0  0  0  0  0  0  0  0  0  0
   -1.2436    4.5501    0.7450 C   0  0  0  0  0  0  0  0  0  0  0  0
   -1.7277    3.6509    0.7664 H   0  0  0  0  0  0  0  0  0  0  0  0
   -1.8294    5.1739    0.1871 H   0  0  0  0  0  0  0  0  0  0  0  0
   -1.1862    4.9398    1.7614 H   0  0  0  0  0  0  0  0  0  0  0  0
    0.3930    4.3742   -0.0042 S   0  0  0  0  0  0  0  0  0  0  0  0
    0.6736    5.9874   -0.6912 C   0  0  0  0  0  0  0  0  0  0  0  0
    1.0089    5.9059   -1.6341 H   0  0  0  0  0  0  0  0  0  0  0  0
   -0.1817    6.5131   -0.6941 H   0  0  0  0  0  0  0  0  0  0  0  0
    1.3566    6.4794   -0.1446 H   0  0  0  0  0  0  0  0  0  0  0  0
  1  5  1  0
  5  8  1  0
  1  2  1  0
  1  3  1  0
  1  4  1  0
  5  6  1  0
  5  7  1  0
  8  9  1  0
  8 10  1  0
  8 11  1  0
 12 16  1  0
 16 17  1  0
 12 13  1  0
 12 14  1  0
 12 15  1  0
 17 18  1  0
 17 19  1  0
 17 20  1  0
M  CHG  1   8   1
M  END
>  <PDB_ID>  (1791) 
pdb5ndy

>  <RESIDUE_NAME>  (1791) 
LYS   MET

>  <FRAG_NAME>  (1791) 
ETAM   MSM

>  <FRAG_ATOM_NUM>  (1791) 
fragi: 11  fragj: 9

>  <atom.prop.CHAIN_ID>  (1791) 
A A A A A A A A A A A Z Z Z Z Z Z Z Z Z

>  <atom.prop.IS_HEAVY_ATOM>  (1791) 
1 0 0 0 1 0 0 1 0 0 0 1 0 0 0 1 1 0 0 0

>  <DIFUSE_FUNC_ATOM>  (1791) 
n/a

>  <FINAL_SINGLE_POINT_ENERGY>  (1791) 
0

>  <NONCOV_INTER_ENERGY_QM>  (1791) 
0

>  <FF_Energy>  (1791) 
-2.78

>  <QM_Energy>  (1791) 
-7.99

>  <source>  (1791) 
ETAM_MSM

>  <Index>  (1791) 
11376

$$$$
ETAM-pdb5n4b-A-LYS-671:MSM-pdb5n4b-A-MET-667
     RDKit          3D

 20 18  0  0  0  0  0  0  0  0999 V2000
    1.1827    0.8677    0.0000 C   0  0  0  0  0  0  0  0  0  0  0  0
    1.1758    1.4608    0.7964 H   0  0  0  0  0  0  0  0  0  0  0  0
    1.2178    1.4042   -0.8353 H   0  0  0  0  0  0  0  0  0  0  0  0
    2.0879    0.2622    0.0448 H   0  0  0  0  0  0  0  0  0  0  0  0
    0.0000    0.0000    0.0000 C   0  0  0  0  0  0  0  0  0  0  0  0
   -0.0046   -0.5720   -0.8166 H   0  0  0  0  0  0  0  0  0  0  0  0
   -0.0048   -0.5723    0.8161 H   0  0  0  0  0  0  0  0  0  0  0  0
   -1.1827    0.8534   -0.0000 N   0  0  0  0  0  4  0  0  0  0  0  0
   -1.3285    1.2445    0.9140 H   0  0  0  0  0  0  0  0  0  0  0  0
   -1.0687    1.6036   -0.6576 H   0  0  0  0  0  0  0  0  0  0  0  0
   -1.9950    0.3200   -0.2565 H   0  0  0  0  0  0  0  0  0  0  0  0
   -0.0116   -1.6836    4.7689 C   0  0  0  0  0  0  0  0  0  0  0  0
   -0.9288   -2.1254    4.8840 H   0  0  0  0  0  0  0  0  0  0  0  0
    0.2864   -1.4150    5.7116 H   0  0  0  0  0  0  0  0  0  0  0  0
    0.6910   -2.4099    4.3601 H   0  0  0  0  0  0  0  0  0  0  0  0
   -0.1523   -0.2179    3.7190 S   0  0  0  0  0  0  0  0  0  0  0  0
   -1.1438    0.8693    4.7292 C   0  0  0  0  0  0  0  0  0  0  0  0
   -1.6175    1.5343    4.1479 H   0  0  0  0  0  0  0  0  0  0  0  0
   -1.8218    0.3345    5.2381 H   0  0  0  0  0  0  0  0  0  0  0  0
   -0.5571    1.3588    5.3777 H   0  0  0  0  0  0  0  0  0  0  0  0
  1  5  1  0
  5  8  1  0
  1  2  1  0
  1  3  1  0
  1  4  1  0
  5  6  1  0
  5  7  1  0
  8  9  1  0
  8 10  1  0
  8 11  1  0
 12 16  1  0
 16 17  1  0
 12 13  1  0
 12 14  1  0
 12 15  1  0
 17 18  1  0
 17 19  1  0
 17 20  1  0
M  CHG  1   8   1
M  END
>  <PDB_ID>  (1792) 
pdb5n4b

>  <RESIDUE_NAME>  (1792) 
LYS   MET

>  <FRAG_NAME>  (1792) 
ETAM   MSM

>  <FRAG_ATOM_NUM>  (1792) 
fragi: 11  fragj: 9

>  <atom.prop.CHAIN_ID>  (1792) 
A A A A A A A A A A A Z Z Z Z Z Z Z Z Z

>  <atom.prop.IS_HEAVY_ATOM>  (1792) 
1 0 0 0 1 0 0 1 0 0 0 1 0 0 0 1 1 0 0 0

>  <DIFUSE_FUNC_ATOM>  (1792) 
n/a

>  <FINAL_SINGLE_POINT_ENERGY>  (1792) 
0

>  <NONCOV_INTER_ENERGY_QM>  (1792) 
0

>  <FF_Energy>  (1792) 
-4.55

>  <QM_Energy>  (1792) 
-10.31

>  <source>  (1792) 
ETAM_MSM

>  <Index>  (1792) 
11385

$$$$
ETAM-pdb6uk3-A-LYS-191:MSM-pdb6uk3-A-MET-133
     RDKit          3D

 20 18  0  0  0  0  0  0  0  0999 V2000
    1.2420    0.8768    0.0000 C   0  0  0  0  0  0  0  0  0  0  0  0
    1.2913    1.3592    0.8664 H   0  0  0  0  0  0  0  0  0  0  0  0
    1.1795    1.5180   -0.7555 H   0  0  0  0  0  0  0  0  0  0  0  0
    2.1449    0.2782   -0.1206 H   0  0  0  0  0  0  0  0  0  0  0  0
    0.0000    0.0000    0.0000 C   0  0  0  0  0  0  0  0  0  0  0  0
    0.0129   -0.5809   -0.8165 H   0  0  0  0  0  0  0  0  0  0  0  0
    0.0123   -0.5809    0.8162 H   0  0  0  0  0  0  0  0  0  0  0  0
   -1.2420    0.8179    0.0000 N   0  0  0  0  0  4  0  0  0  0  0  0
   -1.8700    0.4675    0.6943 H   0  0  0  0  0  0  0  0  0  0  0  0
   -1.0135    1.7688    0.2054 H   0  0  0  0  0  0  0  0  0  0  0  0
   -1.6746    0.7644   -0.8998 H   0  0  0  0  0  0  0  0  0  0  0  0
   -3.5802   -0.9546   -3.9976 C   0  0  0  0  0  0  0  0  0  0  0  0
   -4.1931   -0.2035   -3.6524 H   0  0  0  0  0  0  0  0  0  0  0  0
   -4.2197   -1.6784   -4.3516 H   0  0  0  0  0  0  0  0  0  0  0  0
   -3.0096   -0.5646   -4.8405 H   0  0  0  0  0  0  0  0  0  0  0  0
   -2.5504   -1.6057   -2.6640 S   0  0  0  0  0  0  0  0  0  0  0  0
   -2.0191   -3.1711   -3.3408 C   0  0  0  0  0  0  0  0  0  0  0  0
   -2.4828   -3.3367   -4.2134 H   0  0  0  0  0  0  0  0  0  0  0  0
   -1.0287   -3.1559   -3.4917 H   0  0  0  0  0  0  0  0  0  0  0  0
   -2.2447   -3.9099   -2.7019 H   0  0  0  0  0  0  0  0  0  0  0  0
  1  5  1  0
  5  8  1  0
  1  2  1  0
  1  3  1  0
  1  4  1  0
  5  6  1  0
  5  7  1  0
  8  9  1  0
  8 10  1  0
  8 11  1  0
 12 16  1  0
 16 17  1  0
 12 13  1  0
 12 14  1  0
 12 15  1  0
 17 18  1  0
 17 19  1  0
 17 20  1  0
M  CHG  1   8   1
M  END
>  <PDB_ID>  (1793) 
pdb6uk3

>  <RESIDUE_NAME>  (1793) 
LYS   MET

>  <FRAG_NAME>  (1793) 
ETAM   MSM

>  <FRAG_ATOM_NUM>  (1793) 
fragi: 11  fragj: 9

>  <atom.prop.CHAIN_ID>  (1793) 
A A A A A A A A A A A Z Z Z Z Z Z Z Z Z

>  <atom.prop.IS_HEAVY_ATOM>  (1793) 
1 0 0 0 1 0 0 1 0 0 0 1 0 0 0 1 1 0 0 0

>  <DIFUSE_FUNC_ATOM>  (1793) 
n/a

>  <FINAL_SINGLE_POINT_ENERGY>  (1793) 
0

>  <NONCOV_INTER_ENERGY_QM>  (1793) 
0

>  <FF_Energy>  (1793) 
-5.09

>  <QM_Energy>  (1793) 
-11.6

>  <source>  (1793) 
ETAM_MSM

>  <Index>  (1793) 
11386

$$$$
ETAM-pdb6um4-B-LYS-183:MSM-pdb6um4-B-MET-189
     RDKit          3D

 20 18  0  0  0  0  0  0  0  0999 V2000
    1.2605    0.8579   -0.0000 C   0  0  0  0  0  0  0  0  0  0  0  0
    1.6780    0.8005    0.8945 H   0  0  0  0  0  0  0  0  0  0  0  0
    1.0065    1.7871   -0.2199 H   0  0  0  0  0  0  0  0  0  0  0  0
    1.9608    0.4883   -0.7490 H   0  0  0  0  0  0  0  0  0  0  0  0
    0.0000    0.0000    0.0000 C   0  0  0  0  0  0  0  0  0  0  0  0
    0.0140   -0.5949   -0.8162 H   0  0  0  0  0  0  0  0  0  0  0  0
    0.0139   -0.5949    0.8164 H   0  0  0  0  0  0  0  0  0  0  0  0
   -1.2605    0.7940    0.0000 N   0  0  0  0  0  4  0  0  0  0  0  0
   -2.0321    0.1897    0.1950 H   0  0  0  0  0  0  0  0  0  0  0  0
   -1.2052    1.5033    0.7015 H   0  0  0  0  0  0  0  0  0  0  0  0
   -1.3848    1.2183   -0.8964 H   0  0  0  0  0  0  0  0  0  0  0  0
   -3.7319    0.3199   -3.9794 C   0  0  0  0  0  0  0  0  0  0  0  0
   -4.3749    0.5303   -3.2036 H   0  0  0  0  0  0  0  0  0  0  0  0
   -4.1977   -0.4240   -4.5173 H   0  0  0  0  0  0  0  0  0  0  0  0
   -3.6523    1.2048   -4.6109 H   0  0  0  0  0  0  0  0  0  0  0  0
   -2.1464   -0.2400   -3.3597 S   0  0  0  0  0  0  0  0  0  0  0  0
   -2.6449   -1.7657   -2.5550 C   0  0  0  0  0  0  0  0  0  0  0  0
   -2.2018   -2.5413   -3.0062 H   0  0  0  0  0  0  0  0  0  0  0  0
   -2.3724   -1.7400   -1.5930 H   0  0  0  0  0  0  0  0  0  0  0  0
   -3.6383   -1.8668   -2.6177 H   0  0  0  0  0  0  0  0  0  0  0  0
  1  5  1  0
  5  8  1  0
  1  2  1  0
  1  3  1  0
  1  4  1  0
  5  6  1  0
  5  7  1  0
  8  9  1  0
  8 10  1  0
  8 11  1  0
 12 16  1  0
 16 17  1  0
 12 13  1  0
 12 14  1  0
 12 15  1  0
 17 18  1  0
 17 19  1  0
 17 20  1  0
M  CHG  1   8   1
M  END
>  <PDB_ID>  (1794) 
pdb6um4

>  <RESIDUE_NAME>  (1794) 
LYS   MET

>  <FRAG_NAME>  (1794) 
ETAM   MSM

>  <FRAG_ATOM_NUM>  (1794) 
fragi: 11  fragj: 9

>  <atom.prop.CHAIN_ID>  (1794) 
A A A A A A A A A A A Z Z Z Z Z Z Z Z Z

>  <atom.prop.IS_HEAVY_ATOM>  (1794) 
1 0 0 0 1 0 0 1 0 0 0 1 0 0 0 1 1 0 0 0

>  <DIFUSE_FUNC_ATOM>  (1794) 
n/a

>  <FINAL_SINGLE_POINT_ENERGY>  (1794) 
0

>  <NONCOV_INTER_ENERGY_QM>  (1794) 
0

>  <FF_Energy>  (1794) 
-4.31

>  <QM_Energy>  (1794) 
-11.52

>  <source>  (1794) 
ETAM_MSM

>  <Index>  (1794) 
11391

$$$$
ETAM-pdb6um4-F-LYS-183:MSM-pdb6um4-F-MET-189
     RDKit          3D

 20 18  0  0  0  0  0  0  0  0999 V2000
    1.2549    0.8624   -0.0000 C   0  0  0  0  0  0  0  0  0  0  0  0
    1.7368    0.7192    0.8560 H   0  0  0  0  0  0  0  0  0  0  0  0
    0.9846    1.8134   -0.0942 H   0  0  0  0  0  0  0  0  0  0  0  0
    1.9140    0.5964   -0.8263 H   0  0  0  0  0  0  0  0  0  0  0  0
    0.0000    0.0000    0.0000 C   0  0  0  0  0  0  0  0  0  0  0  0
    0.0094   -0.5885   -0.8164 H   0  0  0  0  0  0  0  0  0  0  0  0
    0.0090   -0.5888    0.8160 H   0  0  0  0  0  0  0  0  0  0  0  0
   -1.2549    0.8109   -0.0000 N   0  0  0  0  0  4  0  0  0  0  0  0
   -1.0198    1.7808    0.0394 H   0  0  0  0  0  0  0  0  0  0  0  0
   -1.7678    0.6222   -0.8357 H   0  0  0  0  0  0  0  0  0  0  0  0
   -1.8051    0.5644    0.7966 H   0  0  0  0  0  0  0  0  0  0  0  0
   -4.3767    1.7334   -3.1853 C   0  0  0  0  0  0  0  0  0  0  0  0
   -4.7513    1.4864   -2.2708 H   0  0  0  0  0  0  0  0  0  0  0  0
   -5.0304    1.3680   -3.8755 H   0  0  0  0  0  0  0  0  0  0  0  0
   -4.3510    2.8198   -3.2699 H   0  0  0  0  0  0  0  0  0  0  0  0
   -2.7374    1.0262   -3.4182 S   0  0  0  0  0  0  0  0  0  0  0  0
   -2.9116   -0.5376   -2.5664 C   0  0  0  0  0  0  0  0  0  0  0  0
   -3.3918   -0.3970   -1.6994 H   0  0  0  0  0  0  0  0  0  0  0  0
   -3.4349   -1.1747   -3.1350 H   0  0  0  0  0  0  0  0  0  0  0  0
   -2.0059   -0.9241   -2.3845 H   0  0  0  0  0  0  0  0  0  0  0  0
  1  5  1  0
  5  8  1  0
  1  2  1  0
  1  3  1  0
  1  4  1  0
  5  6  1  0
  5  7  1  0
  8  9  1  0
  8 10  1  0
  8 11  1  0
 12 16  1  0
 16 17  1  0
 12 13  1  0
 12 14  1  0
 12 15  1  0
 17 18  1  0
 17 19  1  0
 17 20  1  0
M  CHG  1   8   1
M  END
>  <PDB_ID>  (1795) 
pdb6um4

>  <RESIDUE_NAME>  (1795) 
LYS   MET

>  <FRAG_NAME>  (1795) 
ETAM   MSM

>  <FRAG_ATOM_NUM>  (1795) 
fragi: 11  fragj: 9

>  <atom.prop.CHAIN_ID>  (1795) 
A A A A A A A A A A A Z Z Z Z Z Z Z Z Z

>  <atom.prop.IS_HEAVY_ATOM>  (1795) 
1 0 0 0 1 0 0 1 0 0 0 1 0 0 0 1 1 0 0 0

>  <DIFUSE_FUNC_ATOM>  (1795) 
n/a

>  <FINAL_SINGLE_POINT_ENERGY>  (1795) 
0

>  <NONCOV_INTER_ENERGY_QM>  (1795) 
0

>  <FF_Energy>  (1795) 
-2.75

>  <QM_Energy>  (1795) 
-8.44

>  <source>  (1795) 
ETAM_MSM

>  <Index>  (1795) 
11392

$$$$
ETAM-pdb6um4-A-LYS-411:MSM-pdb6um4-A-MET-231
     RDKit          3D

 20 18  0  0  0  0  0  0  0  0999 V2000
    1.2217    0.9039    0.0000 C   0  0  0  0  0  0  0  0  0  0  0  0
    0.9361    1.8200   -0.2585 H   0  0  0  0  0  0  0  0  0  0  0  0
    1.8787    0.5464   -0.6538 H   0  0  0  0  0  0  0  0  0  0  0  0
    1.6820    0.9389    0.9875 H   0  0  0  0  0  0  0  0  0  0  0  0
    0.0000    0.0000    0.0000 C   0  0  0  0  0  0  0  0  0  0  0  0
    0.0087   -0.5591   -0.8163 H   0  0  0  0  0  0  0  0  0  0  0  0
    0.0080   -0.5596    0.8162 H   0  0  0  0  0  0  0  0  0  0  0  0
   -1.2217    0.8550   -0.0000 N   0  0  0  0  0  4  0  0  0  0  0  0
   -2.0313    0.2746    0.0781 H   0  0  0  0  0  0  0  0  0  0  0  0
   -1.1838    1.4844    0.7746 H   0  0  0  0  0  0  0  0  0  0  0  0
   -1.2617    1.3738   -0.8529 H   0  0  0  0  0  0  0  0  0  0  0  0
   -1.6582    5.1097    0.4477 C   0  0  0  0  0  0  0  0  0  0  0  0
   -2.5350    4.9256    0.9029 H   0  0  0  0  0  0  0  0  0  0  0  0
   -1.7815    4.9958   -0.5432 H   0  0  0  0  0  0  0  0  0  0  0  0
   -1.3677    6.1407    0.6497 H   0  0  0  0  0  0  0  0  0  0  0  0
   -0.3673    4.0446    1.0687 S   0  0  0  0  0  0  0  0  0  0  0  0
   -0.5546    4.3433    2.8172 C   0  0  0  0  0  0  0  0  0  0  0  0
   -0.9587    3.5389    3.2575 H   0  0  0  0  0  0  0  0  0  0  0  0
    0.3413    4.5273    3.2274 H   0  0  0  0  0  0  0  0  0  0  0  0
   -1.1523    5.1339    2.9645 H   0  0  0  0  0  0  0  0  0  0  0  0
  1  5  1  0
  5  8  1  0
  1  2  1  0
  1  3  1  0
  1  4  1  0
  5  6  1  0
  5  7  1  0
  8  9  1  0
  8 10  1  0
  8 11  1  0
 12 16  1  0
 16 17  1  0
 12 13  1  0
 12 14  1  0
 12 15  1  0
 17 18  1  0
 17 19  1  0
 17 20  1  0
M  CHG  1   8   1
M  END
>  <PDB_ID>  (1796) 
pdb6um4

>  <RESIDUE_NAME>  (1796) 
LYS   MET

>  <FRAG_NAME>  (1796) 
ETAM   MSM

>  <FRAG_ATOM_NUM>  (1796) 
fragi: 11  fragj: 9

>  <atom.prop.CHAIN_ID>  (1796) 
A A A A A A A A A A A Z Z Z Z Z Z Z Z Z

>  <atom.prop.IS_HEAVY_ATOM>  (1796) 
1 0 0 0 1 0 0 1 0 0 0 1 0 0 0 1 1 0 0 0

>  <DIFUSE_FUNC_ATOM>  (1796) 
n/a

>  <FINAL_SINGLE_POINT_ENERGY>  (1796) 
0

>  <NONCOV_INTER_ENERGY_QM>  (1796) 
0

>  <FF_Energy>  (1796) 
-5.28

>  <QM_Energy>  (1796) 
-14.03

>  <source>  (1796) 
ETAM_MSM

>  <Index>  (1796) 
11400

$$$$
ETAM-pdb6qyh-A-LYS-322:MSM-pdb6qyh-B-MET-486
     RDKit          3D

 20 18  0  0  0  0  0  0  0  0999 V2000
    1.2350    0.8681    0.0000 C   0  0  0  0  0  0  0  0  0  0  0  0
    1.1696    1.5255   -0.7378 H   0  0  0  0  0  0  0  0  0  0  0  0
    2.0357    0.2944   -0.1033 H   0  0  0  0  0  0  0  0  0  0  0  0
    1.3176    1.4121    0.9409 H   0  0  0  0  0  0  0  0  0  0  0  0
    0.0000    0.0000    0.0000 C   0  0  0  0  0  0  0  0  0  0  0  0
    0.0109   -0.5850   -0.8162 H   0  0  0  0  0  0  0  0  0  0  0  0
    0.0108   -0.5854    0.8164 H   0  0  0  0  0  0  0  0  0  0  0  0
   -1.2350    0.8146   -0.0000 N   0  0  0  0  0  4  0  0  0  0  0  0
   -1.7783    0.6004   -0.8125 H   0  0  0  0  0  0  0  0  0  0  0  0
   -1.7711    0.6114    0.8205 H   0  0  0  0  0  0  0  0  0  0  0  0
   -0.9964    1.7865   -0.0082 H   0  0  0  0  0  0  0  0  0  0  0  0
   -2.0706    4.6617   -0.5250 C   0  0  0  0  0  0  0  0  0  0  0  0
   -2.7284    4.6330    0.2544 H   0  0  0  0  0  0  0  0  0  0  0  0
   -2.4012    3.9765   -1.2052 H   0  0  0  0  0  0  0  0  0  0  0  0
   -2.0866    5.6543   -0.9748 H   0  0  0  0  0  0  0  0  0  0  0  0
   -0.3989    4.2118    0.0519 S   0  0  0  0  0  0  0  0  0  0  0  0
   -0.2790    5.1399    1.5704 C   0  0  0  0  0  0  0  0  0  0  0  0
   -0.2108    6.1184    1.3656 H   0  0  0  0  0  0  0  0  0  0  0  0
   -1.0926    4.9780    2.1325 H   0  0  0  0  0  0  0  0  0  0  0  0
    0.5352    4.8533    2.0804 H   0  0  0  0  0  0  0  0  0  0  0  0
  1  5  1  0
  5  8  1  0
  1  2  1  0
  1  3  1  0
  1  4  1  0
  5  6  1  0
  5  7  1  0
  8  9  1  0
  8 10  1  0
  8 11  1  0
 12 16  1  0
 16 17  1  0
 12 13  1  0
 12 14  1  0
 12 15  1  0
 17 18  1  0
 17 19  1  0
 17 20  1  0
M  CHG  1   8   1
M  END
>  <PDB_ID>  (1797) 
pdb6qyh

>  <RESIDUE_NAME>  (1797) 
LYS   MET

>  <FRAG_NAME>  (1797) 
ETAM   MSM

>  <FRAG_ATOM_NUM>  (1797) 
fragi: 11  fragj: 9

>  <atom.prop.CHAIN_ID>  (1797) 
A A A A A A A A A A A Z Z Z Z Z Z Z Z Z

>  <atom.prop.IS_HEAVY_ATOM>  (1797) 
1 0 0 0 1 0 0 1 0 0 0 1 0 0 0 1 1 0 0 0

>  <DIFUSE_FUNC_ATOM>  (1797) 
n/a

>  <FINAL_SINGLE_POINT_ENERGY>  (1797) 
0

>  <NONCOV_INTER_ENERGY_QM>  (1797) 
0

>  <FF_Energy>  (1797) 
-5.35

>  <QM_Energy>  (1797) 
-15.01

>  <source>  (1797) 
ETAM_MSM

>  <Index>  (1797) 
11403

$$$$
ETAM-pdb5nmw-A-LYS-411:MSM-pdb5nmw-A-MET-403
     RDKit          3D

 20 18  0  0  0  0  0  0  0  0999 V2000
    1.2596    0.8614    0.0000 C   0  0  0  0  0  0  0  0  0  0  0  0
    1.3182    1.3291    0.8681 H   0  0  0  0  0  0  0  0  0  0  0  0
    1.2016    1.4982   -0.7524 H   0  0  0  0  0  0  0  0  0  0  0  0
    2.1372    0.2278   -0.1284 H   0  0  0  0  0  0  0  0  0  0  0  0
    0.0000    0.0000    0.0000 C   0  0  0  0  0  0  0  0  0  0  0  0
    0.0114   -0.5904   -0.8158 H   0  0  0  0  0  0  0  0  0  0  0  0
    0.0114   -0.5911    0.8163 H   0  0  0  0  0  0  0  0  0  0  0  0
   -1.2596    0.8049   -0.0000 N   0  0  0  0  0  4  0  0  0  0  0  0
   -1.9596    0.3190    0.5202 H   0  0  0  0  0  0  0  0  0  0  0  0
   -1.0817    1.6923    0.4209 H   0  0  0  0  0  0  0  0  0  0  0  0
   -1.5664    0.9339   -0.9412 H   0  0  0  0  0  0  0  0  0  0  0  0
   -0.2697   -3.6894   -2.9046 C   0  0  0  0  0  0  0  0  0  0  0  0
    0.0628   -3.3512   -3.8046 H   0  0  0  0  0  0  0  0  0  0  0  0
   -0.6813   -4.6049   -3.0704 H   0  0  0  0  0  0  0  0  0  0  0  0
    0.5823   -3.8019   -2.2341 H   0  0  0  0  0  0  0  0  0  0  0  0
   -1.4556   -2.5699   -2.1965 S   0  0  0  0  0  0  0  0  0  0  0  0
   -1.0084   -1.1430   -3.1660 C   0  0  0  0  0  0  0  0  0  0  0  0
   -0.6362   -0.4288   -2.5690 H   0  0  0  0  0  0  0  0  0  0  0  0
   -0.3163   -1.3970   -3.8452 H   0  0  0  0  0  0  0  0  0  0  0  0
   -1.8171   -0.7865   -3.6395 H   0  0  0  0  0  0  0  0  0  0  0  0
  1  5  1  0
  5  8  1  0
  1  2  1  0
  1  3  1  0
  1  4  1  0
  5  6  1  0
  5  7  1  0
  8  9  1  0
  8 10  1  0
  8 11  1  0
 12 16  1  0
 16 17  1  0
 12 13  1  0
 12 14  1  0
 12 15  1  0
 17 18  1  0
 17 19  1  0
 17 20  1  0
M  CHG  1   8   1
M  END
>  <PDB_ID>  (1798) 
pdb5nmw

>  <RESIDUE_NAME>  (1798) 
LYS   MET

>  <FRAG_NAME>  (1798) 
ETAM   MSM

>  <FRAG_ATOM_NUM>  (1798) 
fragi: 11  fragj: 9

>  <atom.prop.CHAIN_ID>  (1798) 
A A A A A A A A A A A Z Z Z Z Z Z Z Z Z

>  <atom.prop.IS_HEAVY_ATOM>  (1798) 
1 0 0 0 1 0 0 1 0 0 0 1 0 0 0 1 1 0 0 0

>  <DIFUSE_FUNC_ATOM>  (1798) 
n/a

>  <FINAL_SINGLE_POINT_ENERGY>  (1798) 
0

>  <NONCOV_INTER_ENERGY_QM>  (1798) 
0

>  <FF_Energy>  (1798) 
-0.02

>  <QM_Energy>  (1798) 
-5.21

>  <source>  (1798) 
ETAM_MSM

>  <Index>  (1798) 
11421

$$$$
ETAM-pdb6um4-C-LYS-411:MSM-pdb6um4-C-MET-231
     RDKit          3D

 20 18  0  0  0  0  0  0  0  0999 V2000
    1.2334    0.8947   -0.0000 C   0  0  0  0  0  0  0  0  0  0  0  0
    1.0003    1.7466    0.4446 H   0  0  0  0  0  0  0  0  0  0  0  0
    1.5095    1.0430   -0.9377 H   0  0  0  0  0  0  0  0  0  0  0  0
    2.0408    0.4073    0.5466 H   0  0  0  0  0  0  0  0  0  0  0  0
    0.0000    0.0000    0.0000 C   0  0  0  0  0  0  0  0  0  0  0  0
    0.0163   -0.5718   -0.8168 H   0  0  0  0  0  0  0  0  0  0  0  0
    0.0160   -0.5716    0.8166 H   0  0  0  0  0  0  0  0  0  0  0  0
   -1.2334    0.8266    0.0000 N   0  0  0  0  0  4  0  0  0  0  0  0
   -2.0245    0.2451   -0.1916 H   0  0  0  0  0  0  0  0  0  0  0  0
   -1.3457    1.2576    0.8954 H   0  0  0  0  0  0  0  0  0  0  0  0
   -1.1609    1.5339   -0.7042 H   0  0  0  0  0  0  0  0  0  0  0  0
   -0.5534    4.0310    3.5509 C   0  0  0  0  0  0  0  0  0  0  0  0
   -1.1812    3.4801    4.1127 H   0  0  0  0  0  0  0  0  0  0  0  0
   -1.0852    4.4588    2.8101 H   0  0  0  0  0  0  0  0  0  0  0  0
   -0.1147    4.8125    4.1713 H   0  0  0  0  0  0  0  0  0  0  0  0
    0.7736    3.0038    2.8780 S   0  0  0  0  0  0  0  0  0  0  0  0
    1.4575    2.2646    4.3695 C   0  0  0  0  0  0  0  0  0  0  0  0
    0.9252    1.4539    4.6122 H   0  0  0  0  0  0  0  0  0  0  0  0
    2.4088    2.0039    4.2040 H   0  0  0  0  0  0  0  0  0  0  0  0
    1.4165    2.9272    5.1163 H   0  0  0  0  0  0  0  0  0  0  0  0
  1  5  1  0
  5  8  1  0
  1  2  1  0
  1  3  1  0
  1  4  1  0
  5  6  1  0
  5  7  1  0
  8  9  1  0
  8 10  1  0
  8 11  1  0
 12 16  1  0
 16 17  1  0
 12 13  1  0
 12 14  1  0
 12 15  1  0
 17 18  1  0
 17 19  1  0
 17 20  1  0
M  CHG  1   8   1
M  END
>  <PDB_ID>  (1799) 
pdb6um4

>  <RESIDUE_NAME>  (1799) 
LYS   MET

>  <FRAG_NAME>  (1799) 
ETAM   MSM

>  <FRAG_ATOM_NUM>  (1799) 
fragi: 11  fragj: 9

>  <atom.prop.CHAIN_ID>  (1799) 
A A A A A A A A A A A Z Z Z Z Z Z Z Z Z

>  <atom.prop.IS_HEAVY_ATOM>  (1799) 
1 0 0 0 1 0 0 1 0 0 0 1 0 0 0 1 1 0 0 0

>  <DIFUSE_FUNC_ATOM>  (1799) 
n/a

>  <FINAL_SINGLE_POINT_ENERGY>  (1799) 
0

>  <NONCOV_INTER_ENERGY_QM>  (1799) 
0

>  <FF_Energy>  (1799) 
-3.76

>  <QM_Energy>  (1799) 
-9.65

>  <source>  (1799) 
ETAM_MSM

>  <Index>  (1799) 
11422

$$$$
ETAM-pdb5nmw-B-LYS-110:MSM-pdb5nmw-B-MET-28
     RDKit          3D

 20 18  0  0  0  0  0  0  0  0999 V2000
    1.2257    0.8536   -0.0000 C   0  0  0  0  0  0  0  0  0  0  0  0
    1.7712    0.6319    0.8069 H   0  0  0  0  0  0  0  0  0  0  0  0
    0.9490    1.8123    0.0335 H   0  0  0  0  0  0  0  0  0  0  0  0
    1.8198    0.6791   -0.8971 H   0  0  0  0  0  0  0  0  0  0  0  0
    0.0000    0.0000    0.0000 C   0  0  0  0  0  0  0  0  0  0  0  0
    0.0098   -0.5946   -0.8165 H   0  0  0  0  0  0  0  0  0  0  0  0
    0.0105   -0.5943    0.8164 H   0  0  0  0  0  0  0  0  0  0  0  0
   -1.2257    0.8009    0.0000 N   0  0  0  0  0  4  0  0  0  0  0  0
   -1.4424    1.0973   -0.9339 H   0  0  0  0  0  0  0  0  0  0  0  0
   -1.9920    0.2573    0.3546 H   0  0  0  0  0  0  0  0  0  0  0  0
   -1.1067    1.6119    0.5790 H   0  0  0  0  0  0  0  0  0  0  0  0
    3.6514   -2.0925    1.8330 C   0  0  0  0  0  0  0  0  0  0  0  0
    4.3813   -1.3656    1.6432 H   0  0  0  0  0  0  0  0  0  0  0  0
    3.2894   -2.3041    0.8736 H   0  0  0  0  0  0  0  0  0  0  0  0
    4.1533   -2.9837    2.2097 H   0  0  0  0  0  0  0  0  0  0  0  0
    2.3677   -1.4434    2.8609 S   0  0  0  0  0  0  0  0  0  0  0  0
    0.9344   -2.3173    2.3533 C   0  0  0  0  0  0  0  0  0  0  0  0
    0.3644   -1.7450    1.7508 H   0  0  0  0  0  0  0  0  0  0  0  0
    1.1885   -3.1519    1.8498 H   0  0  0  0  0  0  0  0  0  0  0  0
    0.3816   -2.5851    3.1515 H   0  0  0  0  0  0  0  0  0  0  0  0
  1  5  1  0
  5  8  1  0
  1  2  1  0
  1  3  1  0
  1  4  1  0
  5  6  1  0
  5  7  1  0
  8  9  1  0
  8 10  1  0
  8 11  1  0
 12 16  1  0
 16 17  1  0
 12 13  1  0
 12 14  1  0
 12 15  1  0
 17 18  1  0
 17 19  1  0
 17 20  1  0
M  CHG  1   8   1
M  END
>  <PDB_ID>  (1800) 
pdb5nmw

>  <RESIDUE_NAME>  (1800) 
LYS   MET

>  <FRAG_NAME>  (1800) 
ETAM   MSM

>  <FRAG_ATOM_NUM>  (1800) 
fragi: 11  fragj: 9

>  <atom.prop.CHAIN_ID>  (1800) 
A A A A A A A A A A A Z Z Z Z Z Z Z Z Z

>  <atom.prop.IS_HEAVY_ATOM>  (1800) 
1 0 0 0 1 0 0 1 0 0 0 1 0 0 0 1 1 0 0 0

>  <DIFUSE_FUNC_ATOM>  (1800) 
n/a

>  <FINAL_SINGLE_POINT_ENERGY>  (1800) 
0

>  <NONCOV_INTER_ENERGY_QM>  (1800) 
0

>  <FF_Energy>  (1800) 
24.02

>  <QM_Energy>  (1800) 
-0.06

>  <source>  (1800) 
ETAM_MSM

>  <Index>  (1800) 
11434

$$$$
ETAM-pdb5ntf-A-LYS-300:MSM-pdb5ntf-A-MET-308
     RDKit          3D

 20 18  0  0  0  0  0  0  0  0999 V2000
    1.2356    0.8613    0.0000 C   0  0  0  0  0  0  0  0  0  0  0  0
    2.0310    0.2864    0.2128 H   0  0  0  0  0  0  0  0  0  0  0  0
    1.1425    1.5613    0.7145 H   0  0  0  0  0  0  0  0  0  0  0  0
    1.4167    1.3608   -0.9517 H   0  0  0  0  0  0  0  0  0  0  0  0
    0.0000    0.0000    0.0000 C   0  0  0  0  0  0  0  0  0  0  0  0
    0.0078   -0.5872   -0.8160 H   0  0  0  0  0  0  0  0  0  0  0  0
    0.0068   -0.5870    0.8167 H   0  0  0  0  0  0  0  0  0  0  0  0
   -1.2356    0.8157   -0.0000 N   0  0  0  0  0  4  0  0  0  0  0  0
   -1.0408    1.7203   -0.3820 H   0  0  0  0  0  0  0  0  0  0  0  0
   -1.9351    0.3647   -0.5561 H   0  0  0  0  0  0  0  0  0  0  0  0
   -1.5711    0.9164    0.9379 H   0  0  0  0  0  0  0  0  0  0  0  0
    0.6153   -0.3893    3.7907 C   0  0  0  0  0  0  0  0  0  0  0  0
    1.0113    0.4408    4.2983 H   0  0  0  0  0  0  0  0  0  0  0  0
    1.1167   -0.3396    2.8681 H   0  0  0  0  0  0  0  0  0  0  0  0
    0.9645   -1.2843    4.3056 H   0  0  0  0  0  0  0  0  0  0  0  0
   -1.1690   -0.1861    3.5488 S   0  0  0  0  0  0  0  0  0  0  0  0
   -1.6743    0.8185    4.9537 C   0  0  0  0  0  0  0  0  0  0  0  0
   -2.6241    0.6106    5.1860 H   0  0  0  0  0  0  0  0  0  0  0  0
   -1.0854    0.6146    5.7359 H   0  0  0  0  0  0  0  0  0  0  0  0
   -1.5922    1.7863    4.7156 H   0  0  0  0  0  0  0  0  0  0  0  0
  1  5  1  0
  5  8  1  0
  1  2  1  0
  1  3  1  0
  1  4  1  0
  5  6  1  0
  5  7  1  0
  8  9  1  0
  8 10  1  0
  8 11  1  0
 12 16  1  0
 16 17  1  0
 12 13  1  0
 12 14  1  0
 12 15  1  0
 17 18  1  0
 17 19  1  0
 17 20  1  0
M  CHG  1   8   1
M  END
>  <PDB_ID>  (1801) 
pdb5ntf

>  <RESIDUE_NAME>  (1801) 
LYS   MET

>  <FRAG_NAME>  (1801) 
ETAM   MSM

>  <FRAG_ATOM_NUM>  (1801) 
fragi: 11  fragj: 9

>  <atom.prop.CHAIN_ID>  (1801) 
A A A A A A A A A A A Z Z Z Z Z Z Z Z Z

>  <atom.prop.IS_HEAVY_ATOM>  (1801) 
1 0 0 0 1 0 0 1 0 0 0 1 0 0 0 1 1 0 0 0

>  <DIFUSE_FUNC_ATOM>  (1801) 
n/a

>  <FINAL_SINGLE_POINT_ENERGY>  (1801) 
0

>  <NONCOV_INTER_ENERGY_QM>  (1801) 
0

>  <FF_Energy>  (1801) 
-5.01

>  <QM_Energy>  (1801) 
-13.52

>  <source>  (1801) 
ETAM_MSM

>  <Index>  (1801) 
11438

$$$$
ETAM-pdb5nmw-B-LYS-365:MSM-pdb5nmw-B-MET-369
     RDKit          3D

 20 18  0  0  0  0  0  0  0  0999 V2000
    1.2521    0.8783   -0.0000 C   0  0  0  0  0  0  0  0  0  0  0  0
    1.2760    1.3901   -0.8441 H   0  0  0  0  0  0  0  0  0  0  0  0
    2.0435    0.2963    0.0963 H   0  0  0  0  0  0  0  0  0  0  0  0
    1.2165    1.5746    0.8378 H   0  0  0  0  0  0  0  0  0  0  0  0
    0.0000    0.0000    0.0000 C   0  0  0  0  0  0  0  0  0  0  0  0
    0.0122   -0.5798   -0.8160 H   0  0  0  0  0  0  0  0  0  0  0  0
    0.0121   -0.5803    0.8169 H   0  0  0  0  0  0  0  0  0  0  0  0
   -1.2521    0.8192    0.0000 N   0  0  0  0  0  4  0  0  0  0  0  0
   -1.0218    1.7686    0.2049 H   0  0  0  0  0  0  0  0  0  0  0  0
   -1.6807    0.7620   -0.8998 H   0  0  0  0  0  0  0  0  0  0  0  0
   -1.8752    0.4647    0.6947 H   0  0  0  0  0  0  0  0  0  0  0  0
   -1.9780    1.4645    4.2457 C   0  0  0  0  0  0  0  0  0  0  0  0
   -2.9584    1.5062    3.9662 H   0  0  0  0  0  0  0  0  0  0  0  0
   -1.5122    2.2404    3.7736 H   0  0  0  0  0  0  0  0  0  0  0  0
   -1.9098    1.6115    5.3235 H   0  0  0  0  0  0  0  0  0  0  0  0
   -1.2453   -0.1067    3.7554 S   0  0  0  0  0  0  0  0  0  0  0  0
   -2.5262   -1.2189    4.3604 C   0  0  0  0  0  0  0  0  0  0  0  0
   -2.1747   -1.7354    5.1405 H   0  0  0  0  0  0  0  0  0  0  0  0
   -3.3220   -0.6846    4.6436 H   0  0  0  0  0  0  0  0  0  0  0  0
   -2.7885   -1.8503    3.6307 H   0  0  0  0  0  0  0  0  0  0  0  0
  1  5  1  0
  5  8  1  0
  1  2  1  0
  1  3  1  0
  1  4  1  0
  5  6  1  0
  5  7  1  0
  8  9  1  0
  8 10  1  0
  8 11  1  0
 12 16  1  0
 16 17  1  0
 12 13  1  0
 12 14  1  0
 12 15  1  0
 17 18  1  0
 17 19  1  0
 17 20  1  0
M  CHG  1   8   1
M  END
>  <PDB_ID>  (1802) 
pdb5nmw

>  <RESIDUE_NAME>  (1802) 
LYS   MET

>  <FRAG_NAME>  (1802) 
ETAM   MSM

>  <FRAG_ATOM_NUM>  (1802) 
fragi: 11  fragj: 9

>  <atom.prop.CHAIN_ID>  (1802) 
A A A A A A A A A A A Z Z Z Z Z Z Z Z Z

>  <atom.prop.IS_HEAVY_ATOM>  (1802) 
1 0 0 0 1 0 0 1 0 0 0 1 0 0 0 1 1 0 0 0

>  <DIFUSE_FUNC_ATOM>  (1802) 
n/a

>  <FINAL_SINGLE_POINT_ENERGY>  (1802) 
0

>  <NONCOV_INTER_ENERGY_QM>  (1802) 
0

>  <FF_Energy>  (1802) 
-4.37

>  <QM_Energy>  (1802) 
-11.27

>  <source>  (1802) 
ETAM_MSM

>  <Index>  (1802) 
11439

$$$$
ETAM-pdb5o1u-B-LYS-133:MSM-pdb5o1u-B-MET-177
     RDKit          3D

 20 18  0  0  0  0  0  0  0  0999 V2000
    1.2517    0.8746    0.0000 C   0  0  0  0  0  0  0  0  0  0  0  0
    1.1183    1.6109    0.6675 H   0  0  0  0  0  0  0  0  0  0  0  0
    1.3525    1.2751   -0.9141 H   0  0  0  0  0  0  0  0  0  0  0  0
    2.1605    0.3278    0.2513 H   0  0  0  0  0  0  0  0  0  0  0  0
    0.0000    0.0000    0.0000 C   0  0  0  0  0  0  0  0  0  0  0  0
    0.0029   -0.5745   -0.8160 H   0  0  0  0  0  0  0  0  0  0  0  0
    0.0031   -0.5750    0.8169 H   0  0  0  0  0  0  0  0  0  0  0  0
   -1.2517    0.8391    0.0000 N   0  0  0  0  0  4  0  0  0  0  0  0
   -1.9219    0.4175    0.6048 H   0  0  0  0  0  0  0  0  0  0  0  0
   -1.0266    1.7546    0.3241 H   0  0  0  0  0  0  0  0  0  0  0  0
   -1.6093    0.8841   -0.9290 H   0  0  0  0  0  0  0  0  0  0  0  0
   -5.1013   -2.1982    1.0962 C   0  0  0  0  0  0  0  0  0  0  0  0
   -5.6401   -1.3627    0.8532 H   0  0  0  0  0  0  0  0  0  0  0  0
   -5.1587   -2.2805    2.1145 H   0  0  0  0  0  0  0  0  0  0  0  0
   -5.5788   -3.0679    0.6449 H   0  0  0  0  0  0  0  0  0  0  0  0
   -3.3659   -2.0028    0.5758 S   0  0  0  0  0  0  0  0  0  0  0  0
   -2.6071   -3.2030    1.6156 C   0  0  0  0  0  0  0  0  0  0  0  0
   -3.2402   -3.9641    1.7938 H   0  0  0  0  0  0  0  0  0  0  0  0
   -1.7789   -3.5724    1.1798 H   0  0  0  0  0  0  0  0  0  0  0  0
   -2.3481   -2.7917    2.4965 H   0  0  0  0  0  0  0  0  0  0  0  0
  1  5  1  0
  5  8  1  0
  1  2  1  0
  1  3  1  0
  1  4  1  0
  5  6  1  0
  5  7  1  0
  8  9  1  0
  8 10  1  0
  8 11  1  0
 12 16  1  0
 16 17  1  0
 12 13  1  0
 12 14  1  0
 12 15  1  0
 17 18  1  0
 17 19  1  0
 17 20  1  0
M  CHG  1   8   1
M  END
>  <PDB_ID>  (1803) 
pdb5o1u

>  <RESIDUE_NAME>  (1803) 
LYS   MET

>  <FRAG_NAME>  (1803) 
ETAM   MSM

>  <FRAG_ATOM_NUM>  (1803) 
fragi: 11  fragj: 9

>  <atom.prop.CHAIN_ID>  (1803) 
A A A A A A A A A A A Z Z Z Z Z Z Z Z Z

>  <atom.prop.IS_HEAVY_ATOM>  (1803) 
1 0 0 0 1 0 0 1 0 0 0 1 0 0 0 1 1 0 0 0

>  <DIFUSE_FUNC_ATOM>  (1803) 
n/a

>  <FINAL_SINGLE_POINT_ENERGY>  (1803) 
0

>  <NONCOV_INTER_ENERGY_QM>  (1803) 
0

>  <FF_Energy>  (1803) 
-5.43

>  <QM_Energy>  (1803) 
-13.46

>  <source>  (1803) 
ETAM_MSM

>  <Index>  (1803) 
11451

$$$$
ETAM-pdb5o1u-A-LYS-261:MSM-pdb5o1u-A-MET-21
     RDKit          3D

 20 18  0  0  0  0  0  0  0  0999 V2000
    1.2470    0.8814   -0.0000 C   0  0  0  0  0  0  0  0  0  0  0  0
    1.1913    1.5027    0.7749 H   0  0  0  0  0  0  0  0  0  0  0  0
    1.2693    1.3929   -0.8532 H   0  0  0  0  0  0  0  0  0  0  0  0
    2.1573    0.2878    0.0842 H   0  0  0  0  0  0  0  0  0  0  0  0
    0.0000    0.0000    0.0000 C   0  0  0  0  0  0  0  0  0  0  0  0
    0.0070   -0.5739   -0.8160 H   0  0  0  0  0  0  0  0  0  0  0  0
    0.0065   -0.5738    0.8161 H   0  0  0  0  0  0  0  0  0  0  0  0
   -1.2470    0.8358    0.0000 N   0  0  0  0  0  4  0  0  0  0  0  0
   -1.7773    0.6295    0.8196 H   0  0  0  0  0  0  0  0  0  0  0  0
   -0.9915    1.8002   -0.0063 H   0  0  0  0  0  0  0  0  0  0  0  0
   -1.7827    0.6207   -0.8138 H   0  0  0  0  0  0  0  0  0  0  0  0
   -4.6383   -0.5053    1.3640 C   0  0  0  0  0  0  0  0  0  0  0  0
   -4.6644    0.2738    0.6954 H   0  0  0  0  0  0  0  0  0  0  0  0
   -4.4696   -0.0715    2.2796 H   0  0  0  0  0  0  0  0  0  0  0  0
   -5.6197   -0.9794    1.3806 H   0  0  0  0  0  0  0  0  0  0  0  0
   -3.3187   -1.6562    0.9516 S   0  0  0  0  0  0  0  0  0  0  0  0
   -3.1593   -2.5699    2.4746 C   0  0  0  0  0  0  0  0  0  0  0  0
   -2.6411   -3.4127    2.3120 H   0  0  0  0  0  0  0  0  0  0  0  0
   -2.6776   -2.0139    3.1552 H   0  0  0  0  0  0  0  0  0  0  0  0
   -4.0683   -2.8053    2.8266 H   0  0  0  0  0  0  0  0  0  0  0  0
  1  5  1  0
  5  8  1  0
  1  2  1  0
  1  3  1  0
  1  4  1  0
  5  6  1  0
  5  7  1  0
  8  9  1  0
  8 10  1  0
  8 11  1  0
 12 16  1  0
 16 17  1  0
 12 13  1  0
 12 14  1  0
 12 15  1  0
 17 18  1  0
 17 19  1  0
 17 20  1  0
M  CHG  1   8   1
M  END
>  <PDB_ID>  (1804) 
pdb5o1u

>  <RESIDUE_NAME>  (1804) 
LYS   MET

>  <FRAG_NAME>  (1804) 
ETAM   MSM

>  <FRAG_ATOM_NUM>  (1804) 
fragi: 11  fragj: 9

>  <atom.prop.CHAIN_ID>  (1804) 
A A A A A A A A A A A Z Z Z Z Z Z Z Z Z

>  <atom.prop.IS_HEAVY_ATOM>  (1804) 
1 0 0 0 1 0 0 1 0 0 0 1 0 0 0 1 1 0 0 0

>  <DIFUSE_FUNC_ATOM>  (1804) 
n/a

>  <FINAL_SINGLE_POINT_ENERGY>  (1804) 
0

>  <NONCOV_INTER_ENERGY_QM>  (1804) 
0

>  <FF_Energy>  (1804) 
-4.96

>  <QM_Energy>  (1804) 
-12.97

>  <source>  (1804) 
ETAM_MSM

>  <Index>  (1804) 
11459

$$$$
ETAM-pdb5o8k-A-LYS-97:MSM-pdb5o8k-A-MET-181
     RDKit          3D

 20 18  0  0  0  0  0  0  0  0999 V2000
    1.2376    0.8674   -0.0000 C   0  0  0  0  0  0  0  0  0  0  0  0
    1.2515    1.4089    0.8391 H   0  0  0  0  0  0  0  0  0  0  0  0
    1.2046    1.4745   -0.7920 H   0  0  0  0  0  0  0  0  0  0  0  0
    2.1544    0.2800   -0.0493 H   0  0  0  0  0  0  0  0  0  0  0  0
    0.0000    0.0000    0.0000 C   0  0  0  0  0  0  0  0  0  0  0  0
    0.0013   -0.5778   -0.8158 H   0  0  0  0  0  0  0  0  0  0  0  0
    0.0008   -0.5773    0.8164 H   0  0  0  0  0  0  0  0  0  0  0  0
   -1.2376    0.8374    0.0000 N   0  0  0  0  0  4  0  0  0  0  0  0
   -1.0241    1.7395   -0.3711 H   0  0  0  0  0  0  0  0  0  0  0  0
   -1.9327    0.3961   -0.5656 H   0  0  0  0  0  0  0  0  0  0  0  0
   -1.5724    0.9286    0.9363 H   0  0  0  0  0  0  0  0  0  0  0  0
   -0.3029   -1.6229   -3.6782 C   0  0  0  0  0  0  0  0  0  0  0  0
    0.1281   -1.6151   -4.6064 H   0  0  0  0  0  0  0  0  0  0  0  0
   -0.5373   -0.6489   -3.4700 H   0  0  0  0  0  0  0  0  0  0  0  0
   -1.2254   -2.2014   -3.7278 H   0  0  0  0  0  0  0  0  0  0  0  0
    0.8587   -2.2734   -2.4436 S   0  0  0  0  0  0  0  0  0  0  0  0
    1.6656   -3.5548   -3.3771 C   0  0  0  0  0  0  0  0  0  0  0  0
    1.0632   -4.3534   -3.4537 H   0  0  0  0  0  0  0  0  0  0  0  0
    1.8845   -3.2208   -4.2976 H   0  0  0  0  0  0  0  0  0  0  0  0
    2.5143   -3.8297   -2.9185 H   0  0  0  0  0  0  0  0  0  0  0  0
  1  5  1  0
  5  8  1  0
  1  2  1  0
  1  3  1  0
  1  4  1  0
  5  6  1  0
  5  7  1  0
  8  9  1  0
  8 10  1  0
  8 11  1  0
 12 16  1  0
 16 17  1  0
 12 13  1  0
 12 14  1  0
 12 15  1  0
 17 18  1  0
 17 19  1  0
 17 20  1  0
M  CHG  1   8   1
M  END
>  <PDB_ID>  (1805) 
pdb5o8k

>  <RESIDUE_NAME>  (1805) 
LYS   MET

>  <FRAG_NAME>  (1805) 
ETAM   MSM

>  <FRAG_ATOM_NUM>  (1805) 
fragi: 11  fragj: 9

>  <atom.prop.CHAIN_ID>  (1805) 
A A A A A A A A A A A Z Z Z Z Z Z Z Z Z

>  <atom.prop.IS_HEAVY_ATOM>  (1805) 
1 0 0 0 1 0 0 1 0 0 0 1 0 0 0 1 1 0 0 0

>  <DIFUSE_FUNC_ATOM>  (1805) 
n/a

>  <FINAL_SINGLE_POINT_ENERGY>  (1805) 
0

>  <NONCOV_INTER_ENERGY_QM>  (1805) 
0

>  <FF_Energy>  (1805) 
-0.96

>  <QM_Energy>  (1805) 
-6.47

>  <source>  (1805) 
ETAM_MSM

>  <Index>  (1805) 
11461

$$$$
ETAM-pdb5o7o-D-LYS-554:MSM-pdb5o7o-D-MET-493
     RDKit          3D

 20 18  0  0  0  0  0  0  0  0999 V2000
    1.2313    0.8925   -0.0000 C   0  0  0  0  0  0  0  0  0  0  0  0
    1.5361    1.0160    0.9429 H   0  0  0  0  0  0  0  0  0  0  0  0
    0.9836    1.7755   -0.3938 H   0  0  0  0  0  0  0  0  0  0  0  0
    2.0522    0.4693   -0.5788 H   0  0  0  0  0  0  0  0  0  0  0  0
    0.0000    0.0000    0.0000 C   0  0  0  0  0  0  0  0  0  0  0  0
    0.0041   -0.5629   -0.8163 H   0  0  0  0  0  0  0  0  0  0  0  0
    0.0033   -0.5633    0.8166 H   0  0  0  0  0  0  0  0  0  0  0  0
   -1.2313    0.8563    0.0000 N   0  0  0  0  0  4  0  0  0  0  0  0
   -0.9798    1.7889   -0.2501 H   0  0  0  0  0  0  0  0  0  0  0  0
   -1.8818    0.4916   -0.6623 H   0  0  0  0  0  0  0  0  0  0  0  0
   -1.6346    0.8464    0.9118 H   0  0  0  0  0  0  0  0  0  0  0  0
   -2.3146   -1.7719    2.5506 C   0  0  0  0  0  0  0  0  0  0  0  0
   -1.4806   -1.1412    2.5482 H   0  0  0  0  0  0  0  0  0  0  0  0
   -1.9827   -2.5862    3.1173 H   0  0  0  0  0  0  0  0  0  0  0  0
   -3.1047   -1.2750    3.1136 H   0  0  0  0  0  0  0  0  0  0  0  0
   -2.7073   -2.3022    0.8577 S   0  0  0  0  0  0  0  0  0  0  0  0
   -3.9471   -3.5783    1.0891 C   0  0  0  0  0  0  0  0  0  0  0  0
   -4.7744   -3.1731    1.4785 H   0  0  0  0  0  0  0  0  0  0  0  0
   -4.1648   -3.9968    0.2069 H   0  0  0  0  0  0  0  0  0  0  0  0
   -3.5944   -4.2782    1.7107 H   0  0  0  0  0  0  0  0  0  0  0  0
  1  5  1  0
  5  8  1  0
  1  2  1  0
  1  3  1  0
  1  4  1  0
  5  6  1  0
  5  7  1  0
  8  9  1  0
  8 10  1  0
  8 11  1  0
 12 16  1  0
 16 17  1  0
 12 13  1  0
 12 14  1  0
 12 15  1  0
 17 18  1  0
 17 19  1  0
 17 20  1  0
M  CHG  1   8   1
M  END
>  <PDB_ID>  (1806) 
pdb5o7o

>  <RESIDUE_NAME>  (1806) 
LYS   MET

>  <FRAG_NAME>  (1806) 
ETAM   MSM

>  <FRAG_ATOM_NUM>  (1806) 
fragi: 11  fragj: 9

>  <atom.prop.CHAIN_ID>  (1806) 
A A A A A A A A A A A Z Z Z Z Z Z Z Z Z

>  <atom.prop.IS_HEAVY_ATOM>  (1806) 
1 0 0 0 1 0 0 1 0 0 0 1 0 0 0 1 1 0 0 0

>  <DIFUSE_FUNC_ATOM>  (1806) 
n/a

>  <FINAL_SINGLE_POINT_ENERGY>  (1806) 
0

>  <NONCOV_INTER_ENERGY_QM>  (1806) 
0

>  <FF_Energy>  (1806) 
-4.62

>  <QM_Energy>  (1806) 
-10.2

>  <source>  (1806) 
ETAM_MSM

>  <Index>  (1806) 
11464

$$$$
ETAM-pdb5o8y-A-LYS-186:MSM-pdb5o8y-A-MET-190
     RDKit          3D

 20 18  0  0  0  0  0  0  0  0999 V2000
    1.2368    0.8745   -0.0000 C   0  0  0  0  0  0  0  0  0  0  0  0
    1.9939    0.3566    0.3915 H   0  0  0  0  0  0  0  0  0  0  0  0
    1.0556    1.6834    0.5542 H   0  0  0  0  0  0  0  0  0  0  0  0
    1.5106    1.1908   -1.0065 H   0  0  0  0  0  0  0  0  0  0  0  0
    0.0000    0.0000    0.0000 C   0  0  0  0  0  0  0  0  0  0  0  0
    0.0102   -0.5798   -0.8161 H   0  0  0  0  0  0  0  0  0  0  0  0
    0.0097   -0.5797    0.8166 H   0  0  0  0  0  0  0  0  0  0  0  0
   -1.2368    0.8234   -0.0000 N   0  0  0  0  0  4  0  0  0  0  0  0
   -1.0343    1.7284    0.3735 H   0  0  0  0  0  0  0  0  0  0  0  0
   -1.5746    0.9167   -0.9369 H   0  0  0  0  0  0  0  0  0  0  0  0
   -1.9333    0.3777    0.5629 H   0  0  0  0  0  0  0  0  0  0  0  0
   -1.0891    0.6849   -5.0276 C   0  0  0  0  0  0  0  0  0  0  0  0
   -0.9760   -0.2834   -5.3889 H   0  0  0  0  0  0  0  0  0  0  0  0
   -0.1294    0.9416   -4.7199 H   0  0  0  0  0  0  0  0  0  0  0  0
   -1.3582    1.3276   -5.8657 H   0  0  0  0  0  0  0  0  0  0  0  0
   -2.2306    0.7016   -3.6132 S   0  0  0  0  0  0  0  0  0  0  0  0
   -2.1991    2.4261   -3.1378 C   0  0  0  0  0  0  0  0  0  0  0  0
   -2.4914    2.5177   -2.1844 H   0  0  0  0  0  0  0  0  0  0  0  0
   -1.2697    2.7850   -3.2354 H   0  0  0  0  0  0  0  0  0  0  0  0
   -2.8187    2.9490   -3.7251 H   0  0  0  0  0  0  0  0  0  0  0  0
  1  5  1  0
  5  8  1  0
  1  2  1  0
  1  3  1  0
  1  4  1  0
  5  6  1  0
  5  7  1  0
  8  9  1  0
  8 10  1  0
  8 11  1  0
 12 16  1  0
 16 17  1  0
 12 13  1  0
 12 14  1  0
 12 15  1  0
 17 18  1  0
 17 19  1  0
 17 20  1  0
M  CHG  1   8   1
M  END
>  <PDB_ID>  (1807) 
pdb5o8y

>  <RESIDUE_NAME>  (1807) 
LYS   MET

>  <FRAG_NAME>  (1807) 
ETAM   MSM

>  <FRAG_ATOM_NUM>  (1807) 
fragi: 11  fragj: 9

>  <atom.prop.CHAIN_ID>  (1807) 
A A A A A A A A A A A Z Z Z Z Z Z Z Z Z

>  <atom.prop.IS_HEAVY_ATOM>  (1807) 
1 0 0 0 1 0 0 1 0 0 0 1 0 0 0 1 1 0 0 0

>  <DIFUSE_FUNC_ATOM>  (1807) 
n/a

>  <FINAL_SINGLE_POINT_ENERGY>  (1807) 
0

>  <NONCOV_INTER_ENERGY_QM>  (1807) 
0

>  <FF_Energy>  (1807) 
-3.86

>  <QM_Energy>  (1807) 
-10.04

>  <source>  (1807) 
ETAM_MSM

>  <Index>  (1807) 
11469

$$$$
ETAM-pdb5o81-B-LYS-183:MSM-pdb5o81-B-MET-174
     RDKit          3D

 20 18  0  0  0  0  0  0  0  0999 V2000
    1.2188    0.8925   -0.0000 C   0  0  0  0  0  0  0  0  0  0  0  0
    1.2474    1.3859   -0.8582 H   0  0  0  0  0  0  0  0  0  0  0  0
    2.0227    0.3263    0.1121 H   0  0  0  0  0  0  0  0  0  0  0  0
    1.1480    1.5987    0.8273 H   0  0  0  0  0  0  0  0  0  0  0  0
    0.0000    0.0000    0.0000 C   0  0  0  0  0  0  0  0  0  0  0  0
    0.0043   -0.5637   -0.8161 H   0  0  0  0  0  0  0  0  0  0  0  0
    0.0042   -0.5642    0.8161 H   0  0  0  0  0  0  0  0  0  0  0  0
   -1.2188    0.8538    0.0000 N   0  0  0  0  0  4  0  0  0  0  0  0
   -1.5150    1.0084    0.9420 H   0  0  0  0  0  0  0  0  0  0  0  0
   -1.0103    1.7305   -0.4334 H   0  0  0  0  0  0  0  0  0  0  0  0
   -1.9460    0.3933   -0.5083 H   0  0  0  0  0  0  0  0  0  0  0  0
    0.6543    4.5827   -3.7366 C   0  0  0  0  0  0  0  0  0  0  0  0
   -0.2078    5.1248   -3.6990 H   0  0  0  0  0  0  0  0  0  0  0  0
    1.0364    4.7134   -4.6717 H   0  0  0  0  0  0  0  0  0  0  0  0
    1.3580    4.9729   -3.0013 H   0  0  0  0  0  0  0  0  0  0  0  0
    0.3287    2.8541   -3.4226 S   0  0  0  0  0  0  0  0  0  0  0  0
    1.9687    2.1766   -3.6925 C   0  0  0  0  0  0  0  0  0  0  0  0
    2.6040    2.5625   -3.0234 H   0  0  0  0  0  0  0  0  0  0  0  0
    1.9400    1.1817   -3.5892 H   0  0  0  0  0  0  0  0  0  0  0  0
    2.2770    2.4068   -4.6160 H   0  0  0  0  0  0  0  0  0  0  0  0
  1  5  1  0
  5  8  1  0
  1  2  1  0
  1  3  1  0
  1  4  1  0
  5  6  1  0
  5  7  1  0
  8  9  1  0
  8 10  1  0
  8 11  1  0
 12 16  1  0
 16 17  1  0
 12 13  1  0
 12 14  1  0
 12 15  1  0
 17 18  1  0
 17 19  1  0
 17 20  1  0
M  CHG  1   8   1
M  END
>  <PDB_ID>  (1808) 
pdb5o81

>  <RESIDUE_NAME>  (1808) 
LYS   MET

>  <FRAG_NAME>  (1808) 
ETAM   MSM

>  <FRAG_ATOM_NUM>  (1808) 
fragi: 11  fragj: 9

>  <atom.prop.CHAIN_ID>  (1808) 
A A A A A A A A A A A Z Z Z Z Z Z Z Z Z

>  <atom.prop.IS_HEAVY_ATOM>  (1808) 
1 0 0 0 1 0 0 1 0 0 0 1 0 0 0 1 1 0 0 0

>  <DIFUSE_FUNC_ATOM>  (1808) 
n/a

>  <FINAL_SINGLE_POINT_ENERGY>  (1808) 
0

>  <NONCOV_INTER_ENERGY_QM>  (1808) 
0

>  <FF_Energy>  (1808) 
-4.29

>  <QM_Energy>  (1808) 
-9.6

>  <source>  (1808) 
ETAM_MSM

>  <Index>  (1808) 
11477

$$$$
ETAM-pdb5o81-D-LYS-183:MSM-pdb5o81-D-MET-174
     RDKit          3D

 20 18  0  0  0  0  0  0  0  0999 V2000
    1.2370    0.8671   -0.0000 C   0  0  0  0  0  0  0  0  0  0  0  0
    1.9996    0.3292    0.3567 H   0  0  0  0  0  0  0  0  0  0  0  0
    1.0725    1.6512    0.5967 H   0  0  0  0  0  0  0  0  0  0  0  0
    1.4827    1.2205   -1.0014 H   0  0  0  0  0  0  0  0  0  0  0  0
    0.0000    0.0000    0.0000 C   0  0  0  0  0  0  0  0  0  0  0  0
    0.0014   -0.5782   -0.8166 H   0  0  0  0  0  0  0  0  0  0  0  0
    0.0015   -0.5788    0.8162 H   0  0  0  0  0  0  0  0  0  0  0  0
   -1.2370    0.8356    0.0000 N   0  0  0  0  0  4  0  0  0  0  0  0
   -2.0346    0.2437   -0.1086 H   0  0  0  0  0  0  0  0  0  0  0  0
   -1.2996    1.3308    0.8653 H   0  0  0  0  0  0  0  0  0  0  0  0
   -1.1951    1.4862   -0.7568 H   0  0  0  0  0  0  0  0  0  0  0  0
   -0.7927    1.8175   -5.3323 C   0  0  0  0  0  0  0  0  0  0  0  0
   -1.4086    2.6244   -5.3900 H   0  0  0  0  0  0  0  0  0  0  0  0
   -0.9021    1.3014   -6.2018 H   0  0  0  0  0  0  0  0  0  0  0  0
    0.2366    2.1694   -5.2626 H   0  0  0  0  0  0  0  0  0  0  0  0
   -1.2222    0.7833   -3.9145 S   0  0  0  0  0  0  0  0  0  0  0  0
   -0.7235   -0.8362   -4.5144 C   0  0  0  0  0  0  0  0  0  0  0  0
   -0.7737   -1.4983   -3.7664 H   0  0  0  0  0  0  0  0  0  0  0  0
   -1.3350   -1.1201   -5.2529 H   0  0  0  0  0  0  0  0  0  0  0  0
    0.2152   -0.7897   -4.8567 H   0  0  0  0  0  0  0  0  0  0  0  0
  1  5  1  0
  5  8  1  0
  1  2  1  0
  1  3  1  0
  1  4  1  0
  5  6  1  0
  5  7  1  0
  8  9  1  0
  8 10  1  0
  8 11  1  0
 12 16  1  0
 16 17  1  0
 12 13  1  0
 12 14  1  0
 12 15  1  0
 17 18  1  0
 17 19  1  0
 17 20  1  0
M  CHG  1   8   1
M  END
>  <PDB_ID>  (1809) 
pdb5o81

>  <RESIDUE_NAME>  (1809) 
LYS   MET

>  <FRAG_NAME>  (1809) 
ETAM   MSM

>  <FRAG_ATOM_NUM>  (1809) 
fragi: 11  fragj: 9

>  <atom.prop.CHAIN_ID>  (1809) 
A A A A A A A A A A A Z Z Z Z Z Z Z Z Z

>  <atom.prop.IS_HEAVY_ATOM>  (1809) 
1 0 0 0 1 0 0 1 0 0 0 1 0 0 0 1 1 0 0 0

>  <DIFUSE_FUNC_ATOM>  (1809) 
n/a

>  <FINAL_SINGLE_POINT_ENERGY>  (1809) 
0

>  <NONCOV_INTER_ENERGY_QM>  (1809) 
0

>  <FF_Energy>  (1809) 
-4.84

>  <QM_Energy>  (1809) 
-10.74

>  <source>  (1809) 
ETAM_MSM

>  <Index>  (1809) 
11479

$$$$
ETAM-pdb5o9x-A-LYS-79:MSM-pdb5o9x-A-MET-87
     RDKit          3D

 20 18  0  0  0  0  0  0  0  0999 V2000
    1.1914    0.9201   -0.0000 C   0  0  0  0  0  0  0  0  0  0  0  0
    1.1017    1.5569    0.7555 H   0  0  0  0  0  0  0  0  0  0  0  0
    1.2205    1.4028   -0.8659 H   0  0  0  0  0  0  0  0  0  0  0  0
    2.1062    0.3403    0.1225 H   0  0  0  0  0  0  0  0  0  0  0  0
    0.0000    0.0000    0.0000 C   0  0  0  0  0  0  0  0  0  0  0  0
    0.0050   -0.5454   -0.8166 H   0  0  0  0  0  0  0  0  0  0  0  0
    0.0046   -0.5459    0.8162 H   0  0  0  0  0  0  0  0  0  0  0  0
   -1.1914    0.8815   -0.0000 N   0  0  0  0  0  4  0  0  0  0  0  0
   -1.0532    1.6308   -0.6483 H   0  0  0  0  0  0  0  0  0  0  0  0
   -1.9980    0.3540   -0.2689 H   0  0  0  0  0  0  0  0  0  0  0  0
   -1.3296    1.2568    0.9171 H   0  0  0  0  0  0  0  0  0  0  0  0
   -0.4170    1.0499    5.2159 C   0  0  0  0  0  0  0  0  0  0  0  0
   -1.4044    0.9436    5.4107 H   0  0  0  0  0  0  0  0  0  0  0  0
   -0.1524    1.9888    5.4866 H   0  0  0  0  0  0  0  0  0  0  0  0
    0.1320    0.3456    5.8410 H   0  0  0  0  0  0  0  0  0  0  0  0
   -0.0522    0.7385    3.4959 S   0  0  0  0  0  0  0  0  0  0  0  0
    1.5073    1.6645    3.4933 C   0  0  0  0  0  0  0  0  0  0  0  0
    1.3237    2.6094    3.7546 H   0  0  0  0  0  0  0  0  0  0  0  0
    2.1345    1.2463    4.1466 H   0  0  0  0  0  0  0  0  0  0  0  0
    1.9009    1.6350    2.5769 H   0  0  0  0  0  0  0  0  0  0  0  0
  1  5  1  0
  5  8  1  0
  1  2  1  0
  1  3  1  0
  1  4  1  0
  5  6  1  0
  5  7  1  0
  8  9  1  0
  8 10  1  0
  8 11  1  0
 12 16  1  0
 16 17  1  0
 12 13  1  0
 12 14  1  0
 12 15  1  0
 17 18  1  0
 17 19  1  0
 17 20  1  0
M  CHG  1   8   1
M  END
>  <PDB_ID>  (1810) 
pdb5o9x

>  <RESIDUE_NAME>  (1810) 
LYS   MET

>  <FRAG_NAME>  (1810) 
ETAM   MSM

>  <FRAG_ATOM_NUM>  (1810) 
fragi: 11  fragj: 9

>  <atom.prop.CHAIN_ID>  (1810) 
A A A A A A A A A A A Z Z Z Z Z Z Z Z Z

>  <atom.prop.IS_HEAVY_ATOM>  (1810) 
1 0 0 0 1 0 0 1 0 0 0 1 0 0 0 1 1 0 0 0

>  <DIFUSE_FUNC_ATOM>  (1810) 
n/a

>  <FINAL_SINGLE_POINT_ENERGY>  (1810) 
0

>  <NONCOV_INTER_ENERGY_QM>  (1810) 
0

>  <FF_Energy>  (1810) 
-4.27

>  <QM_Energy>  (1810) 
-12.15

>  <source>  (1810) 
ETAM_MSM

>  <Index>  (1810) 
11480

$$$$
ETAM-pdb5o8y-C-LYS-109:MSM-pdb5o8y-C-MET-88
     RDKit          3D

 20 18  0  0  0  0  0  0  0  0999 V2000
    1.2528    0.8582    0.0000 C   0  0  0  0  0  0  0  0  0  0  0  0
    1.0431    1.7316    0.4660 H   0  0  0  0  0  0  0  0  0  0  0  0
    1.4929    1.0733   -0.9595 H   0  0  0  0  0  0  0  0  0  0  0  0
    2.1277    0.4195    0.4797 H   0  0  0  0  0  0  0  0  0  0  0  0
    0.0000    0.0000    0.0000 C   0  0  0  0  0  0  0  0  0  0  0  0
    0.0044   -0.5868   -0.8166 H   0  0  0  0  0  0  0  0  0  0  0  0
    0.0049   -0.5871    0.8164 H   0  0  0  0  0  0  0  0  0  0  0  0
   -1.2528    0.8186    0.0000 N   0  0  0  0  0  4  0  0  0  0  0  0
   -1.9072    0.4165    0.6379 H   0  0  0  0  0  0  0  0  0  0  0  0
   -1.0344    1.7512    0.2819 H   0  0  0  0  0  0  0  0  0  0  0  0
   -1.6397    0.8257   -0.9205 H   0  0  0  0  0  0  0  0  0  0  0  0
    0.4212   -0.3300    3.7951 C   0  0  0  0  0  0  0  0  0  0  0  0
    0.8859   -0.1508    4.7026 H   0  0  0  0  0  0  0  0  0  0  0  0
    1.1812   -0.6794    3.1857 H   0  0  0  0  0  0  0  0  0  0  0  0
   -0.2972   -1.1375    3.9371 H   0  0  0  0  0  0  0  0  0  0  0  0
   -0.2804    1.1922    3.1278 S   0  0  0  0  0  0  0  0  0  0  0  0
    1.0613    2.3447    3.4338 C   0  0  0  0  0  0  0  0  0  0  0  0
    1.3737    2.7309    2.5653 H   0  0  0  0  0  0  0  0  0  0  0  0
    0.7399    3.0811    4.0291 H   0  0  0  0  0  0  0  0  0  0  0  0
    1.8189    1.8649    3.8768 H   0  0  0  0  0  0  0  0  0  0  0  0
  1  5  1  0
  5  8  1  0
  1  2  1  0
  1  3  1  0
  1  4  1  0
  5  6  1  0
  5  7  1  0
  8  9  1  0
  8 10  1  0
  8 11  1  0
 12 16  1  0
 16 17  1  0
 12 13  1  0
 12 14  1  0
 12 15  1  0
 17 18  1  0
 17 19  1  0
 17 20  1  0
M  CHG  1   8   1
M  END
>  <PDB_ID>  (1811) 
pdb5o8y

>  <RESIDUE_NAME>  (1811) 
LYS   MET

>  <FRAG_NAME>  (1811) 
ETAM   MSM

>  <FRAG_ATOM_NUM>  (1811) 
fragi: 11  fragj: 9

>  <atom.prop.CHAIN_ID>  (1811) 
A A A A A A A A A A A Z Z Z Z Z Z Z Z Z

>  <atom.prop.IS_HEAVY_ATOM>  (1811) 
1 0 0 0 1 0 0 1 0 0 0 1 0 0 0 1 1 0 0 0

>  <DIFUSE_FUNC_ATOM>  (1811) 
n/a

>  <FINAL_SINGLE_POINT_ENERGY>  (1811) 
0

>  <NONCOV_INTER_ENERGY_QM>  (1811) 
0

>  <FF_Energy>  (1811) 
-4.68

>  <QM_Energy>  (1811) 
-12.87

>  <source>  (1811) 
ETAM_MSM

>  <Index>  (1811) 
11487

$$$$
ETAM-pdb5oev-D-LYS-376:MSM-pdb5oev-D-MET-409
     RDKit          3D

 20 18  0  0  0  0  0  0  0  0999 V2000
    1.2836    0.8285   -0.0000 C   0  0  0  0  0  0  0  0  0  0  0  0
    1.1467    1.6211    0.5742 H   0  0  0  0  0  0  0  0  0  0  0  0
    1.4915    1.0866   -0.9302 H   0  0  0  0  0  0  0  0  0  0  0  0
    2.1090    0.2393    0.3996 H   0  0  0  0  0  0  0  0  0  0  0  0
    0.0000    0.0000    0.0000 C   0  0  0  0  0  0  0  0  0  0  0  0
    0.0112   -0.6126   -0.8159 H   0  0  0  0  0  0  0  0  0  0  0  0
    0.0105   -0.6132    0.8163 H   0  0  0  0  0  0  0  0  0  0  0  0
   -1.2836    0.7713    0.0000 N   0  0  0  0  0  4  0  0  0  0  0  0
   -1.9658    0.2712   -0.5309 H   0  0  0  0  0  0  0  0  0  0  0  0
   -1.6000    0.8800    0.9408 H   0  0  0  0  0  0  0  0  0  0  0  0
   -1.1269    1.6675   -0.4094 H   0  0  0  0  0  0  0  0  0  0  0  0
    0.3791    1.2116    4.9747 C   0  0  0  0  0  0  0  0  0  0  0  0
    1.3332    0.8839    4.8192 H   0  0  0  0  0  0  0  0  0  0  0  0
   -0.1636    0.3901    5.2452 H   0  0  0  0  0  0  0  0  0  0  0  0
    0.3786    1.9268    5.7973 H   0  0  0  0  0  0  0  0  0  0  0  0
   -0.2945    1.9363    3.4509 S   0  0  0  0  0  0  0  0  0  0  0  0
    1.0501    3.0247    3.0052 C   0  0  0  0  0  0  0  0  0  0  0  0
    0.7468    3.9782    3.0603 H   0  0  0  0  0  0  0  0  0  0  0  0
    1.8188    2.8867    3.6327 H   0  0  0  0  0  0  0  0  0  0  0  0
    1.3486    2.8272    2.0693 H   0  0  0  0  0  0  0  0  0  0  0  0
  1  5  1  0
  5  8  1  0
  1  2  1  0
  1  3  1  0
  1  4  1  0
  5  6  1  0
  5  7  1  0
  8  9  1  0
  8 10  1  0
  8 11  1  0
 12 16  1  0
 16 17  1  0
 12 13  1  0
 12 14  1  0
 12 15  1  0
 17 18  1  0
 17 19  1  0
 17 20  1  0
M  CHG  1   8   1
M  END
>  <PDB_ID>  (1812) 
pdb5oev

>  <RESIDUE_NAME>  (1812) 
LYS   MET

>  <FRAG_NAME>  (1812) 
ETAM   MSM

>  <FRAG_ATOM_NUM>  (1812) 
fragi: 11  fragj: 9

>  <atom.prop.CHAIN_ID>  (1812) 
A A A A A A A A A A A Z Z Z Z Z Z Z Z Z

>  <atom.prop.IS_HEAVY_ATOM>  (1812) 
1 0 0 0 1 0 0 1 0 0 0 1 0 0 0 1 1 0 0 0

>  <DIFUSE_FUNC_ATOM>  (1812) 
n/a

>  <FINAL_SINGLE_POINT_ENERGY>  (1812) 
0

>  <NONCOV_INTER_ENERGY_QM>  (1812) 
0

>  <FF_Energy>  (1812) 
-3.96

>  <QM_Energy>  (1812) 
-10.73

>  <source>  (1812) 
ETAM_MSM

>  <Index>  (1812) 
11508

$$$$
ETAM-pdb5oes-A-LYS-372:MSM-pdb5oes-A-MET-408
     RDKit          3D

 20 18  0  0  0  0  0  0  0  0999 V2000
    1.2386    0.8633   -0.0000 C   0  0  0  0  0  0  0  0  0  0  0  0
    1.1709    1.5251    0.7404 H   0  0  0  0  0  0  0  0  0  0  0  0
    1.3057    1.3308   -0.8755 H   0  0  0  0  0  0  0  0  0  0  0  0
    2.1385    0.2664    0.1479 H   0  0  0  0  0  0  0  0  0  0  0  0
    0.0000    0.0000    0.0000 C   0  0  0  0  0  0  0  0  0  0  0  0
    0.0111   -0.5880   -0.8163 H   0  0  0  0  0  0  0  0  0  0  0  0
    0.0104   -0.5887    0.8165 H   0  0  0  0  0  0  0  0  0  0  0  0
   -1.2386    0.8088    0.0000 N   0  0  0  0  0  4  0  0  0  0  0  0
   -1.2810    1.3585   -0.8351 H   0  0  0  0  0  0  0  0  0  0  0  0
   -2.0346    0.2035    0.0391 H   0  0  0  0  0  0  0  0  0  0  0  0
   -1.2440    1.4158    0.7965 H   0  0  0  0  0  0  0  0  0  0  0  0
    0.9080    5.4118    0.2155 C   0  0  0  0  0  0  0  0  0  0  0  0
    0.8689    5.9694    1.0716 H   0  0  0  0  0  0  0  0  0  0  0  0
    0.7807    6.0708   -0.5551 H   0  0  0  0  0  0  0  0  0  0  0  0
    1.9012    4.9702    0.1345 H   0  0  0  0  0  0  0  0  0  0  0  0
   -0.3915    4.1602    0.2068 S   0  0  0  0  0  0  0  0  0  0  0  0
   -1.8078    5.2454    0.1427 C   0  0  0  0  0  0  0  0  0  0  0  0
   -1.8309    5.7196   -0.7399 H   0  0  0  0  0  0  0  0  0  0  0  0
   -2.6486    4.7115    0.2530 H   0  0  0  0  0  0  0  0  0  0  0  0
   -1.7488    5.9231    0.8788 H   0  0  0  0  0  0  0  0  0  0  0  0
  1  5  1  0
  5  8  1  0
  1  2  1  0
  1  3  1  0
  1  4  1  0
  5  6  1  0
  5  7  1  0
  8  9  1  0
  8 10  1  0
  8 11  1  0
 12 16  1  0
 16 17  1  0
 12 13  1  0
 12 14  1  0
 12 15  1  0
 17 18  1  0
 17 19  1  0
 17 20  1  0
M  CHG  1   8   1
M  END
>  <PDB_ID>  (1813) 
pdb5oes

>  <RESIDUE_NAME>  (1813) 
LYS   MET

>  <FRAG_NAME>  (1813) 
ETAM   MSM

>  <FRAG_ATOM_NUM>  (1813) 
fragi: 11  fragj: 9

>  <atom.prop.CHAIN_ID>  (1813) 
A A A A A A A A A A A Z Z Z Z Z Z Z Z Z

>  <atom.prop.IS_HEAVY_ATOM>  (1813) 
1 0 0 0 1 0 0 1 0 0 0 1 0 0 0 1 1 0 0 0

>  <DIFUSE_FUNC_ATOM>  (1813) 
n/a

>  <FINAL_SINGLE_POINT_ENERGY>  (1813) 
0

>  <NONCOV_INTER_ENERGY_QM>  (1813) 
0

>  <FF_Energy>  (1813) 
-5.75

>  <QM_Energy>  (1813) 
-12.81

>  <source>  (1813) 
ETAM_MSM

>  <Index>  (1813) 
11511

$$$$
ETAM-pdb5oes-B-LYS-372:MSM-pdb5oes-B-MET-408
     RDKit          3D

 20 18  0  0  0  0  0  0  0  0999 V2000
    1.2460    0.8887    0.0000 C   0  0  0  0  0  0  0  0  0  0  0  0
    1.1551    1.5561    0.7424 H   0  0  0  0  0  0  0  0  0  0  0  0
    1.2845    1.3748   -0.8754 H   0  0  0  0  0  0  0  0  0  0  0  0
    2.1769    0.3381    0.1364 H   0  0  0  0  0  0  0  0  0  0  0  0
    0.0000    0.0000    0.0000 C   0  0  0  0  0  0  0  0  0  0  0  0
    0.0245   -0.5825   -0.8165 H   0  0  0  0  0  0  0  0  0  0  0  0
    0.0236   -0.5827    0.8166 H   0  0  0  0  0  0  0  0  0  0  0  0
   -1.2460    0.8002    0.0000 N   0  0  0  0  0  4  0  0  0  0  0  0
   -1.6979    0.7174    0.8889 H   0  0  0  0  0  0  0  0  0  0  0  0
   -1.0273    1.7617   -0.1732 H   0  0  0  0  0  0  0  0  0  0  0  0
   -1.8599    0.4655   -0.7172 H   0  0  0  0  0  0  0  0  0  0  0  0
    0.8394    5.4296   -0.1892 C   0  0  0  0  0  0  0  0  0  0  0  0
    0.8457    6.0720    0.6081 H   0  0  0  0  0  0  0  0  0  0  0  0
    0.6413    6.0079   -1.0105 H   0  0  0  0  0  0  0  0  0  0  0  0
    1.8368    5.0037   -0.2978 H   0  0  0  0  0  0  0  0  0  0  0  0
   -0.4199    4.1623    0.0196 S   0  0  0  0  0  0  0  0  0  0  0  0
   -1.9287    5.0840   -0.1644 C   0  0  0  0  0  0  0  0  0  0  0  0
   -1.7275    6.0074   -0.5026 H   0  0  0  0  0  0  0  0  0  0  0  0
   -2.5345    4.6224   -0.8169 H   0  0  0  0  0  0  0  0  0  0  0  0
   -2.3967    5.1561    0.7206 H   0  0  0  0  0  0  0  0  0  0  0  0
  1  5  1  0
  5  8  1  0
  1  2  1  0
  1  3  1  0
  1  4  1  0
  5  6  1  0
  5  7  1  0
  8  9  1  0
  8 10  1  0
  8 11  1  0
 12 16  1  0
 16 17  1  0
 12 13  1  0
 12 14  1  0
 12 15  1  0
 17 18  1  0
 17 19  1  0
 17 20  1  0
M  CHG  1   8   1
M  END
>  <PDB_ID>  (1814) 
pdb5oes

>  <RESIDUE_NAME>  (1814) 
LYS   MET

>  <FRAG_NAME>  (1814) 
ETAM   MSM

>  <FRAG_ATOM_NUM>  (1814) 
fragi: 11  fragj: 9

>  <atom.prop.CHAIN_ID>  (1814) 
A A A A A A A A A A A Z Z Z Z Z Z Z Z Z

>  <atom.prop.IS_HEAVY_ATOM>  (1814) 
1 0 0 0 1 0 0 1 0 0 0 1 0 0 0 1 1 0 0 0

>  <DIFUSE_FUNC_ATOM>  (1814) 
n/a

>  <FINAL_SINGLE_POINT_ENERGY>  (1814) 
0

>  <NONCOV_INTER_ENERGY_QM>  (1814) 
0

>  <FF_Energy>  (1814) 
-6.02

>  <QM_Energy>  (1814) 
-14.22

>  <source>  (1814) 
ETAM_MSM

>  <Index>  (1814) 
11512

$$$$
ETAM-pdb5oes-C-LYS-372:MSM-pdb5oes-C-MET-408
     RDKit          3D

 20 18  0  0  0  0  0  0  0  0999 V2000
    1.2597    0.8741    0.0000 C   0  0  0  0  0  0  0  0  0  0  0  0
    1.1606    1.5676    0.7143 H   0  0  0  0  0  0  0  0  0  0  0  0
    1.3295    1.3237   -0.8911 H   0  0  0  0  0  0  0  0  0  0  0  0
    2.1772    0.3146    0.1825 H   0  0  0  0  0  0  0  0  0  0  0  0
    0.0000    0.0000    0.0000 C   0  0  0  0  0  0  0  0  0  0  0  0
    0.0169   -0.5861   -0.8164 H   0  0  0  0  0  0  0  0  0  0  0  0
    0.0165   -0.5864    0.8167 H   0  0  0  0  0  0  0  0  0  0  0  0
   -1.2597    0.8041    0.0000 N   0  0  0  0  0  4  0  0  0  0  0  0
   -1.4145    1.1713   -0.9156 H   0  0  0  0  0  0  0  0  0  0  0  0
   -2.0239    0.2174    0.2619 H   0  0  0  0  0  0  0  0  0  0  0  0
   -1.1712    1.5540    0.6539 H   0  0  0  0  0  0  0  0  0  0  0  0
    0.9117    5.4228   -0.1336 C   0  0  0  0  0  0  0  0  0  0  0  0
    0.9057    6.0399    0.6814 H   0  0  0  0  0  0  0  0  0  0  0  0
    0.7376    6.0221   -0.9425 H   0  0  0  0  0  0  0  0  0  0  0  0
    1.9060    4.9870   -0.2310 H   0  0  0  0  0  0  0  0  0  0  0  0
   -0.3877    4.1595    0.0142 S   0  0  0  0  0  0  0  0  0  0  0  0
   -1.9068    5.0867   -0.0453 C   0  0  0  0  0  0  0  0  0  0  0  0
   -1.9072    5.6893   -0.8465 H   0  0  0  0  0  0  0  0  0  0  0  0
   -2.6870    4.4596   -0.1071 H   0  0  0  0  0  0  0  0  0  0  0  0
   -1.9988    5.6437    0.7837 H   0  0  0  0  0  0  0  0  0  0  0  0
  1  5  1  0
  5  8  1  0
  1  2  1  0
  1  3  1  0
  1  4  1  0
  5  6  1  0
  5  7  1  0
  8  9  1  0
  8 10  1  0
  8 11  1  0
 12 16  1  0
 16 17  1  0
 12 13  1  0
 12 14  1  0
 12 15  1  0
 17 18  1  0
 17 19  1  0
 17 20  1  0
M  CHG  1   8   1
M  END
>  <PDB_ID>  (1815) 
pdb5oes

>  <RESIDUE_NAME>  (1815) 
LYS   MET

>  <FRAG_NAME>  (1815) 
ETAM   MSM

>  <FRAG_ATOM_NUM>  (1815) 
fragi: 11  fragj: 9

>  <atom.prop.CHAIN_ID>  (1815) 
A A A A A A A A A A A Z Z Z Z Z Z Z Z Z

>  <atom.prop.IS_HEAVY_ATOM>  (1815) 
1 0 0 0 1 0 0 1 0 0 0 1 0 0 0 1 1 0 0 0

>  <DIFUSE_FUNC_ATOM>  (1815) 
n/a

>  <FINAL_SINGLE_POINT_ENERGY>  (1815) 
0

>  <NONCOV_INTER_ENERGY_QM>  (1815) 
0

>  <FF_Energy>  (1815) 
-5.67

>  <QM_Energy>  (1815) 
-13.07

>  <source>  (1815) 
ETAM_MSM

>  <Index>  (1815) 
11513

$$$$
ETAM-pdb5oes-D-LYS-372:MSM-pdb5oes-D-MET-408
     RDKit          3D

 20 18  0  0  0  0  0  0  0  0999 V2000
    1.2564    0.8415   -0.0000 C   0  0  0  0  0  0  0  0  0  0  0  0
    1.1022    1.6518    0.5582 H   0  0  0  0  0  0  0  0  0  0  0  0
    1.4691    1.1038   -0.9363 H   0  0  0  0  0  0  0  0  0  0  0  0
    2.1058    0.2950    0.4098 H   0  0  0  0  0  0  0  0  0  0  0  0
    0.0000    0.0000    0.0000 C   0  0  0  0  0  0  0  0  0  0  0  0
   -0.0175   -0.5791   -0.8165 H   0  0  0  0  0  0  0  0  0  0  0  0
   -0.0172   -0.5799    0.8162 H   0  0  0  0  0  0  0  0  0  0  0  0
   -1.2564    0.8576   -0.0000 N   0  0  0  0  0  4  0  0  0  0  0  0
   -1.3896    1.2214    0.9162 H   0  0  0  0  0  0  0  0  0  0  0  0
   -1.1333    1.5974   -0.6528 H   0  0  0  0  0  0  0  0  0  0  0  0
   -2.0270    0.2874   -0.2629 H   0  0  0  0  0  0  0  0  0  0  0  0
    1.0297    5.2959   -0.8864 C   0  0  0  0  0  0  0  0  0  0  0  0
    0.8401    5.9912   -0.1560 H   0  0  0  0  0  0  0  0  0  0  0  0
    1.0633    5.8256   -1.7649 H   0  0  0  0  0  0  0  0  0  0  0  0
    2.0121    4.8600   -0.7050 H   0  0  0  0  0  0  0  0  0  0  0  0
   -0.3047    4.0599   -0.9438 S   0  0  0  0  0  0  0  0  0  0  0  0
   -1.8166    5.0430   -1.3730 C   0  0  0  0  0  0  0  0  0  0  0  0
   -2.6105    4.5057   -1.1208 H   0  0  0  0  0  0  0  0  0  0  0  0
   -1.7836    5.8907   -0.8614 H   0  0  0  0  0  0  0  0  0  0  0  0
   -1.8007    5.2163   -2.3488 H   0  0  0  0  0  0  0  0  0  0  0  0
  1  5  1  0
  5  8  1  0
  1  2  1  0
  1  3  1  0
  1  4  1  0
  5  6  1  0
  5  7  1  0
  8  9  1  0
  8 10  1  0
  8 11  1  0
 12 16  1  0
 16 17  1  0
 12 13  1  0
 12 14  1  0
 12 15  1  0
 17 18  1  0
 17 19  1  0
 17 20  1  0
M  CHG  1   8   1
M  END
>  <PDB_ID>  (1816) 
pdb5oes

>  <RESIDUE_NAME>  (1816) 
LYS   MET

>  <FRAG_NAME>  (1816) 
ETAM   MSM

>  <FRAG_ATOM_NUM>  (1816) 
fragi: 11  fragj: 9

>  <atom.prop.CHAIN_ID>  (1816) 
A A A A A A A A A A A Z Z Z Z Z Z Z Z Z

>  <atom.prop.IS_HEAVY_ATOM>  (1816) 
1 0 0 0 1 0 0 1 0 0 0 1 0 0 0 1 1 0 0 0

>  <DIFUSE_FUNC_ATOM>  (1816) 
n/a

>  <FINAL_SINGLE_POINT_ENERGY>  (1816) 
0

>  <NONCOV_INTER_ENERGY_QM>  (1816) 
0

>  <FF_Energy>  (1816) 
-5.77

>  <QM_Energy>  (1816) 
-13.64

>  <source>  (1816) 
ETAM_MSM

>  <Index>  (1816) 
11514

$$$$
ETAM-pdb5oes-E-LYS-372:MSM-pdb5oes-E-MET-408
     RDKit          3D

 20 18  0  0  0  0  0  0  0  0999 V2000
    1.2438    0.8501   -0.0000 C   0  0  0  0  0  0  0  0  0  0  0  0
    1.1699    1.5254    0.7326 H   0  0  0  0  0  0  0  0  0  0  0  0
    1.3135    1.3156   -0.8809 H   0  0  0  0  0  0  0  0  0  0  0  0
    2.1414    0.2523    0.1582 H   0  0  0  0  0  0  0  0  0  0  0  0
    0.0000    0.0000    0.0000 C   0  0  0  0  0  0  0  0  0  0  0  0
   -0.0009   -0.5881   -0.8166 H   0  0  0  0  0  0  0  0  0  0  0  0
   -0.0015   -0.5877    0.8157 H   0  0  0  0  0  0  0  0  0  0  0  0
   -1.2438    0.8251   -0.0000 N   0  0  0  0  0  4  0  0  0  0  0  0
   -1.0070    1.7787    0.1789 H   0  0  0  0  0  0  0  0  0  0  0  0
   -1.6890    0.7508   -0.8913 H   0  0  0  0  0  0  0  0  0  0  0  0
   -1.8598    0.4925    0.7127 H   0  0  0  0  0  0  0  0  0  0  0  0
    0.9954    5.4071   -0.0590 C   0  0  0  0  0  0  0  0  0  0  0  0
    0.9127    5.9680    0.7902 H   0  0  0  0  0  0  0  0  0  0  0  0
    0.9166    6.0592   -0.8401 H   0  0  0  0  0  0  0  0  0  0  0  0
    1.9841    4.9488   -0.0817 H   0  0  0  0  0  0  0  0  0  0  0  0
   -0.3243    4.1668   -0.1316 S   0  0  0  0  0  0  0  0  0  0  0  0
   -1.7305    5.2565   -0.2789 C   0  0  0  0  0  0  0  0  0  0  0  0
   -2.2972    4.9750   -1.0552 H   0  0  0  0  0  0  0  0  0  0  0  0
   -2.2784    5.2178    0.5595 H   0  0  0  0  0  0  0  0  0  0  0  0
   -1.4165    6.1971   -0.4245 H   0  0  0  0  0  0  0  0  0  0  0  0
  1  5  1  0
  5  8  1  0
  1  2  1  0
  1  3  1  0
  1  4  1  0
  5  6  1  0
  5  7  1  0
  8  9  1  0
  8 10  1  0
  8 11  1  0
 12 16  1  0
 16 17  1  0
 12 13  1  0
 12 14  1  0
 12 15  1  0
 17 18  1  0
 17 19  1  0
 17 20  1  0
M  CHG  1   8   1
M  END
>  <PDB_ID>  (1817) 
pdb5oes

>  <RESIDUE_NAME>  (1817) 
LYS   MET

>  <FRAG_NAME>  (1817) 
ETAM   MSM

>  <FRAG_ATOM_NUM>  (1817) 
fragi: 11  fragj: 9

>  <atom.prop.CHAIN_ID>  (1817) 
A A A A A A A A A A A Z Z Z Z Z Z Z Z Z

>  <atom.prop.IS_HEAVY_ATOM>  (1817) 
1 0 0 0 1 0 0 1 0 0 0 1 0 0 0 1 1 0 0 0

>  <DIFUSE_FUNC_ATOM>  (1817) 
n/a

>  <FINAL_SINGLE_POINT_ENERGY>  (1817) 
0

>  <NONCOV_INTER_ENERGY_QM>  (1817) 
0

>  <FF_Energy>  (1817) 
-6.06

>  <QM_Energy>  (1817) 
-13.9

>  <source>  (1817) 
ETAM_MSM

>  <Index>  (1817) 
11515

$$$$
ETAM-pdb5oes-F-LYS-372:MSM-pdb5oes-F-MET-408
     RDKit          3D

 20 18  0  0  0  0  0  0  0  0999 V2000
    1.2400    0.8835   -0.0000 C   0  0  0  0  0  0  0  0  0  0  0  0
    1.1494    1.5561    0.7335 H   0  0  0  0  0  0  0  0  0  0  0  0
    1.2939    1.3522   -0.8801 H   0  0  0  0  0  0  0  0  0  0  0  0
    2.1580    0.3163    0.1543 H   0  0  0  0  0  0  0  0  0  0  0  0
    0.0000    0.0000    0.0000 C   0  0  0  0  0  0  0  0  0  0  0  0
    0.0192   -0.5819   -0.8156 H   0  0  0  0  0  0  0  0  0  0  0  0
    0.0185   -0.5822    0.8166 H   0  0  0  0  0  0  0  0  0  0  0  0
   -1.2400    0.8083    0.0000 N   0  0  0  0  0  4  0  0  0  0  0  0
   -1.0115    1.7739    0.1306 H   0  0  0  0  0  0  0  0  0  0  0  0
   -1.7143    0.6954   -0.8741 H   0  0  0  0  0  0  0  0  0  0  0  0
   -1.8382    0.5046    0.7435 H   0  0  0  0  0  0  0  0  0  0  0  0
    0.8732    5.4416    0.0227 C   0  0  0  0  0  0  0  0  0  0  0  0
    0.8530    6.0452    0.8456 H   0  0  0  0  0  0  0  0  0  0  0  0
    0.7002    6.0483   -0.7791 H   0  0  0  0  0  0  0  0  0  0  0  0
    1.8700    5.0109   -0.0715 H   0  0  0  0  0  0  0  0  0  0  0  0
   -0.3914    4.1623    0.1391 S   0  0  0  0  0  0  0  0  0  0  0  0
   -1.8992    5.0956    0.0382 C   0  0  0  0  0  0  0  0  0  0  0  0
   -2.3713    4.8934   -0.8246 H   0  0  0  0  0  0  0  0  0  0  0  0
   -2.5031    4.8563    0.8033 H   0  0  0  0  0  0  0  0  0  0  0  0
   -1.6982    6.0785    0.0767 H   0  0  0  0  0  0  0  0  0  0  0  0
  1  5  1  0
  5  8  1  0
  1  2  1  0
  1  3  1  0
  1  4  1  0
  5  6  1  0
  5  7  1  0
  8  9  1  0
  8 10  1  0
  8 11  1  0
 12 16  1  0
 16 17  1  0
 12 13  1  0
 12 14  1  0
 12 15  1  0
 17 18  1  0
 17 19  1  0
 17 20  1  0
M  CHG  1   8   1
M  END
>  <PDB_ID>  (1818) 
pdb5oes

>  <RESIDUE_NAME>  (1818) 
LYS   MET

>  <FRAG_NAME>  (1818) 
ETAM   MSM

>  <FRAG_ATOM_NUM>  (1818) 
fragi: 11  fragj: 9

>  <atom.prop.CHAIN_ID>  (1818) 
A A A A A A A A A A A Z Z Z Z Z Z Z Z Z

>  <atom.prop.IS_HEAVY_ATOM>  (1818) 
1 0 0 0 1 0 0 1 0 0 0 1 0 0 0 1 1 0 0 0

>  <DIFUSE_FUNC_ATOM>  (1818) 
n/a

>  <FINAL_SINGLE_POINT_ENERGY>  (1818) 
0

>  <NONCOV_INTER_ENERGY_QM>  (1818) 
0

>  <FF_Energy>  (1818) 
-6.01

>  <QM_Energy>  (1818) 
-14.03

>  <source>  (1818) 
ETAM_MSM

>  <Index>  (1818) 
11516

$$$$
ETAM-pdb7odc-A-LYS-6:MSM-pdb7odc-A-MET-417
     RDKit          3D

 20 18  0  0  0  0  0  0  0  0999 V2000
    1.2533    0.8549   -0.0000 C   0  0  0  0  0  0  0  0  0  0  0  0
    1.2662    1.4041    0.8292 H   0  0  0  0  0  0  0  0  0  0  0  0
    1.2413    1.4399   -0.8040 H   0  0  0  0  0  0  0  0  0  0  0  0
    2.1542    0.2420   -0.0264 H   0  0  0  0  0  0  0  0  0  0  0  0
    0.0000    0.0000    0.0000 C   0  0  0  0  0  0  0  0  0  0  0  0
    0.0077   -0.5913   -0.8158 H   0  0  0  0  0  0  0  0  0  0  0  0
    0.0077   -0.5922    0.8167 H   0  0  0  0  0  0  0  0  0  0  0  0
   -1.2533    0.8079    0.0000 N   0  0  0  0  0  4  0  0  0  0  0  0
   -1.0286    1.7662   -0.1710 H   0  0  0  0  0  0  0  0  0  0  0  0
   -1.8619    0.4722   -0.7173 H   0  0  0  0  0  0  0  0  0  0  0  0
   -1.7018    0.7211    0.8889 H   0  0  0  0  0  0  0  0  0  0  0  0
   -5.3415   -1.0835   -1.1031 C   0  0  0  0  0  0  0  0  0  0  0  0
   -5.0307   -0.2700   -1.6670 H   0  0  0  0  0  0  0  0  0  0  0  0
   -6.1253   -0.7068   -0.5371 H   0  0  0  0  0  0  0  0  0  0  0  0
   -5.7464   -1.8310   -1.7853 H   0  0  0  0  0  0  0  0  0  0  0  0
   -4.0052   -1.6605   -0.0319 S   0  0  0  0  0  0  0  0  0  0  0  0
   -2.7871   -2.2212   -1.2222 C   0  0  0  0  0  0  0  0  0  0  0  0
   -2.5511   -3.1758   -1.0360 H   0  0  0  0  0  0  0  0  0  0  0  0
   -3.1631   -2.1456   -2.1464 H   0  0  0  0  0  0  0  0  0  0  0  0
   -1.9643   -1.6564   -1.1509 H   0  0  0  0  0  0  0  0  0  0  0  0
  1  5  1  0
  5  8  1  0
  1  2  1  0
  1  3  1  0
  1  4  1  0
  5  6  1  0
  5  7  1  0
  8  9  1  0
  8 10  1  0
  8 11  1  0
 12 16  1  0
 16 17  1  0
 12 13  1  0
 12 14  1  0
 12 15  1  0
 17 18  1  0
 17 19  1  0
 17 20  1  0
M  CHG  1   8   1
M  END
>  <PDB_ID>  (1819) 
pdb7odc

>  <RESIDUE_NAME>  (1819) 
LYS   MET

>  <FRAG_NAME>  (1819) 
ETAM   MSM

>  <FRAG_ATOM_NUM>  (1819) 
fragi: 11  fragj: 9

>  <atom.prop.CHAIN_ID>  (1819) 
A A A A A A A A A A A Z Z Z Z Z Z Z Z Z

>  <atom.prop.IS_HEAVY_ATOM>  (1819) 
1 0 0 0 1 0 0 1 0 0 0 1 0 0 0 1 1 0 0 0

>  <DIFUSE_FUNC_ATOM>  (1819) 
n/a

>  <FINAL_SINGLE_POINT_ENERGY>  (1819) 
0

>  <NONCOV_INTER_ENERGY_QM>  (1819) 
0

>  <FF_Energy>  (1819) 
-2.78

>  <QM_Energy>  (1819) 
-8.01

>  <source>  (1819) 
ETAM_MSM

>  <Index>  (1819) 
11523

$$$$
ETAM-pdb5qrf-A-LYS-207:MSM-pdb5qrf-A-MET-62
     RDKit          3D

 20 18  0  0  0  0  0  0  0  0999 V2000
    1.2257    0.8918    0.0000 C   0  0  0  0  0  0  0  0  0  0  0  0
    1.0333    1.6949    0.5664 H   0  0  0  0  0  0  0  0  0  0  0  0
    1.4033    1.1863   -0.9405 H   0  0  0  0  0  0  0  0  0  0  0  0
    2.1120    0.3894    0.3874 H   0  0  0  0  0  0  0  0  0  0  0  0
    0.0000    0.0000    0.0000 C   0  0  0  0  0  0  0  0  0  0  0  0
    0.0214   -0.5782   -0.8161 H   0  0  0  0  0  0  0  0  0  0  0  0
    0.0206   -0.5777    0.8159 H   0  0  0  0  0  0  0  0  0  0  0  0
   -1.2257    0.8125   -0.0000 N   0  0  0  0  0  4  0  0  0  0  0  0
   -1.6931    0.7240    0.8829 H   0  0  0  0  0  0  0  0  0  0  0  0
   -0.9959    1.7759   -0.1542 H   0  0  0  0  0  0  0  0  0  0  0  0
   -1.8403    0.5015   -0.7279 H   0  0  0  0  0  0  0  0  0  0  0  0
   -5.7284    1.3768   -0.3200 C   0  0  0  0  0  0  0  0  0  0  0  0
   -5.6125    0.3511   -0.3647 H   0  0  0  0  0  0  0  0  0  0  0  0
   -6.5734    1.5648   -0.8843 H   0  0  0  0  0  0  0  0  0  0  0  0
   -5.9301    1.6590    0.7134 H   0  0  0  0  0  0  0  0  0  0  0  0
   -4.2792    2.2023   -1.0722 S   0  0  0  0  0  0  0  0  0  0  0  0
   -4.1221    1.1582   -2.5191 C   0  0  0  0  0  0  0  0  0  0  0  0
   -4.4262    1.6605   -3.3303 H   0  0  0  0  0  0  0  0  0  0  0  0
   -3.1649    0.8881   -2.6358 H   0  0  0  0  0  0  0  0  0  0  0  0
   -4.6866    0.3396   -2.4053 H   0  0  0  0  0  0  0  0  0  0  0  0
  1  5  1  0
  5  8  1  0
  1  2  1  0
  1  3  1  0
  1  4  1  0
  5  6  1  0
  5  7  1  0
  8  9  1  0
  8 10  1  0
  8 11  1  0
 12 16  1  0
 16 17  1  0
 12 13  1  0
 12 14  1  0
 12 15  1  0
 17 18  1  0
 17 19  1  0
 17 20  1  0
M  CHG  1   8   1
M  END
>  <PDB_ID>  (1820) 
pdb5qrf

>  <RESIDUE_NAME>  (1820) 
LYS   MET

>  <FRAG_NAME>  (1820) 
ETAM   MSM

>  <FRAG_ATOM_NUM>  (1820) 
fragi: 11  fragj: 9

>  <atom.prop.CHAIN_ID>  (1820) 
A A A A A A A A A A A Z Z Z Z Z Z Z Z Z

>  <atom.prop.IS_HEAVY_ATOM>  (1820) 
1 0 0 0 1 0 0 1 0 0 0 1 0 0 0 1 1 0 0 0

>  <DIFUSE_FUNC_ATOM>  (1820) 
n/a

>  <FINAL_SINGLE_POINT_ENERGY>  (1820) 
0

>  <NONCOV_INTER_ENERGY_QM>  (1820) 
0

>  <FF_Energy>  (1820) 
-3.98

>  <QM_Energy>  (1820) 
-10.32

>  <source>  (1820) 
ETAM_MSM

>  <Index>  (1820) 
11562

$$$$
ETAM-pdb5t40-B-LYS-333:MSM-pdb5t40-B-MET-329
     RDKit          3D

 20 18  0  0  0  0  0  0  0  0999 V2000
    1.2547    0.8652   -0.0000 C   0  0  0  0  0  0  0  0  0  0  0  0
    2.0225    0.2842   -0.1141 H   0  0  0  0  0  0  0  0  0  0  0  0
    1.3065    1.3228    0.8546 H   0  0  0  0  0  0  0  0  0  0  0  0
    1.2413    1.6033   -0.8020 H   0  0  0  0  0  0  0  0  0  0  0  0
    0.0000    0.0000    0.0000 C   0  0  0  0  0  0  0  0  0  0  0  0
   -0.0011   -0.5550   -0.7953 H   0  0  0  0  0  0  0  0  0  0  0  0
   -0.0012   -0.5569    0.7938 H   0  0  0  0  0  0  0  0  0  0  0  0
   -1.2547    0.8061   -0.0000 N   0  0  0  0  0  4  0  0  0  0  0  0
   -1.9620    0.2661   -0.0007 H   0  0  0  0  0  0  0  0  0  0  0  0
   -1.2840    1.3214    0.7251 H   0  0  0  0  0  0  0  0  0  0  0  0
   -1.2845    1.3230   -0.7238 H   0  0  0  0  0  0  0  0  0  0  0  0
   -0.0672   -1.5170   -3.4973 C   0  0  0  0  0  0  0  0  0  0  0  0
   -0.1595   -2.3299   -2.9754 H   0  0  0  0  0  0  0  0  0  0  0  0
    0.5417   -0.9063   -3.0536 H   0  0  0  0  0  0  0  0  0  0  0  0
    0.3352   -1.7699   -4.4783 H   0  0  0  0  0  0  0  0  0  0  0  0
   -1.6819   -0.7255   -3.5834 S   0  0  0  0  0  0  0  0  0  0  0  0
   -2.7511   -2.1487   -3.8258 C   0  0  0  0  0  0  0  0  0  0  0  0
   -3.6699   -1.8453   -3.8883 H   0  0  0  0  0  0  0  0  0  0  0  0
   -2.4938   -2.5997   -4.6443 H   0  0  0  0  0  0  0  0  0  0  0  0
   -2.6515   -2.7496   -3.0703 H   0  0  0  0  0  0  0  0  0  0  0  0
  1  5  1  0
  5  8  1  0
  1  2  1  0
  1  3  1  0
  1  4  1  0
  5  6  1  0
  5  7  1  0
  8  9  1  0
  8 10  1  0
  8 11  1  0
 12 16  1  0
 16 17  1  0
 12 13  1  0
 12 14  1  0
 12 15  1  0
 17 18  1  0
 17 19  1  0
 17 20  1  0
M  CHG  1   8   1
M  END
>  <PDB_ID>  (1821) 
pdb5t40

>  <RESIDUE_NAME>  (1821) 
LYS   MET

>  <FRAG_NAME>  (1821) 
ETAM   MSM

>  <FRAG_ATOM_NUM>  (1821) 
fragi: 11  fragj: 9

>  <atom.prop.CHAIN_ID>  (1821) 
A A A A A A A A A A A Z Z Z Z Z Z Z Z Z

>  <atom.prop.IS_HEAVY_ATOM>  (1821) 
1 0 0 0 1 0 0 1 0 0 0 1 0 0 0 1 1 0 0 0

>  <DIFUSE_FUNC_ATOM>  (1821) 
n/a

>  <FINAL_SINGLE_POINT_ENERGY>  (1821) 
0

>  <NONCOV_INTER_ENERGY_QM>  (1821) 
0

>  <FF_Energy>  (1821) 
-3.94

>  <QM_Energy>  (1821) 
-9.55

>  <source>  (1821) 
ETAM_MSM

>  <Index>  (1821) 
11590

$$$$
ETAM-pdb5tbx-A-LYS-62:MSM-pdb5tbx-A-MET-66
     RDKit          3D

 20 18  0  0  0  0  0  0  0  0999 V2000
    1.2420    0.8946    0.0000 C   0  0  0  0  0  0  0  0  0  0  0  0
    1.1147    1.6045    0.6479 H   0  0  0  0  0  0  0  0  0  0  0  0
    1.3620    1.2601   -0.8905 H   0  0  0  0  0  0  0  0  0  0  0  0
    2.1141    0.3006    0.2730 H   0  0  0  0  0  0  0  0  0  0  0  0
    0.0000    0.0000    0.0000 C   0  0  0  0  0  0  0  0  0  0  0  0
    0.0053   -0.5550   -0.7951 H   0  0  0  0  0  0  0  0  0  0  0  0
    0.0058   -0.5551    0.7959 H   0  0  0  0  0  0  0  0  0  0  0  0
   -1.2420    0.7902   -0.0000 N   0  0  0  0  0  4  0  0  0  0  0  0
   -1.9482    0.2471    0.0003 H   0  0  0  0  0  0  0  0  0  0  0  0
   -1.2743    1.3066    0.7244 H   0  0  0  0  0  0  0  0  0  0  0  0
   -1.2746    1.3060   -0.7245 H   0  0  0  0  0  0  0  0  0  0  0  0
   -0.2165    1.4276    3.9684 C   0  0  0  0  0  0  0  0  0  0  0  0
    0.4827    1.8669    3.4596 H   0  0  0  0  0  0  0  0  0  0  0  0
   -0.1752    0.4658    3.8517 H   0  0  0  0  0  0  0  0  0  0  0  0
   -0.1137    1.6755    5.0248 H   0  0  0  0  0  0  0  0  0  0  0  0
   -1.8200    2.0161    3.3796 S   0  0  0  0  0  0  0  0  0  0  0  0
   -2.8916    0.7074    3.9817 C   0  0  0  0  0  0  0  0  0  0  0  0
   -3.8060    0.9067    3.7258 H   0  0  0  0  0  0  0  0  0  0  0  0
   -2.6132   -0.1345    3.5890 H   0  0  0  0  0  0  0  0  0  0  0  0
   -2.8209    0.6619    4.9482 H   0  0  0  0  0  0  0  0  0  0  0  0
  1  5  1  0
  5  8  1  0
  1  2  1  0
  1  3  1  0
  1  4  1  0
  5  6  1  0
  5  7  1  0
  8  9  1  0
  8 10  1  0
  8 11  1  0
 12 16  1  0
 16 17  1  0
 12 13  1  0
 12 14  1  0
 12 15  1  0
 17 18  1  0
 17 19  1  0
 17 20  1  0
M  CHG  1   8   1
M  END
>  <PDB_ID>  (1822) 
pdb5tbx

>  <RESIDUE_NAME>  (1822) 
LYS   MET

>  <FRAG_NAME>  (1822) 
ETAM   MSM

>  <FRAG_ATOM_NUM>  (1822) 
fragi: 11  fragj: 9

>  <atom.prop.CHAIN_ID>  (1822) 
A A A A A A A A A A A Z Z Z Z Z Z Z Z Z

>  <atom.prop.IS_HEAVY_ATOM>  (1822) 
1 0 0 0 1 0 0 1 0 0 0 1 0 0 0 1 1 0 0 0

>  <DIFUSE_FUNC_ATOM>  (1822) 
n/a

>  <FINAL_SINGLE_POINT_ENERGY>  (1822) 
0

>  <NONCOV_INTER_ENERGY_QM>  (1822) 
0

>  <FF_Energy>  (1822) 
-4.54

>  <QM_Energy>  (1822) 
-12.47

>  <source>  (1822) 
ETAM_MSM

>  <Index>  (1822) 
11599

$$$$
ETAM-pdb5tbx-B-LYS-62:MSM-pdb5tbx-B-MET-66
     RDKit          3D

 20 18  0  0  0  0  0  0  0  0999 V2000
    1.2468    0.8933   -0.0000 C   0  0  0  0  0  0  0  0  0  0  0  0
    1.0004    1.7702    0.3326 H   0  0  0  0  0  0  0  0  0  0  0  0
    1.5840    0.9547   -0.9082 H   0  0  0  0  0  0  0  0  0  0  0  0
    2.0097    0.4574    0.6451 H   0  0  0  0  0  0  0  0  0  0  0  0
    0.0000    0.0000    0.0000 C   0  0  0  0  0  0  0  0  0  0  0  0
    0.0009   -0.5545   -0.7959 H   0  0  0  0  0  0  0  0  0  0  0  0
    0.0010   -0.5537    0.7963 H   0  0  0  0  0  0  0  0  0  0  0  0
   -1.2468    0.8212    0.0000 N   0  0  0  0  0  4  0  0  0  0  0  0
   -1.9609    0.2892    0.0002 H   0  0  0  0  0  0  0  0  0  0  0  0
   -1.2701    1.3376    0.7244 H   0  0  0  0  0  0  0  0  0  0  0  0
   -1.2707    1.3368   -0.7245 H   0  0  0  0  0  0  0  0  0  0  0  0
   -0.9206    2.0264    3.7603 C   0  0  0  0  0  0  0  0  0  0  0  0
   -0.0859    2.2497    3.3191 H   0  0  0  0  0  0  0  0  0  0  0  0
   -0.9834    1.0681    3.8980 H   0  0  0  0  0  0  0  0  0  0  0  0
   -0.9677    2.5342    4.7236 H   0  0  0  0  0  0  0  0  0  0  0  0
   -2.2977    2.5441    2.6829 S   0  0  0  0  0  0  0  0  0  0  0  0
   -3.6924    1.8541    3.5646 C   0  0  0  0  0  0  0  0  0  0  0  0
   -4.5065    2.0653    3.0816 H   0  0  0  0  0  0  0  0  0  0  0  0
   -3.5822    0.8917    3.6248 H   0  0  0  0  0  0  0  0  0  0  0  0
   -3.7245    2.2392    4.4536 H   0  0  0  0  0  0  0  0  0  0  0  0
  1  5  1  0
  5  8  1  0
  1  2  1  0
  1  3  1  0
  1  4  1  0
  5  6  1  0
  5  7  1  0
  8  9  1  0
  8 10  1  0
  8 11  1  0
 12 16  1  0
 16 17  1  0
 12 13  1  0
 12 14  1  0
 12 15  1  0
 17 18  1  0
 17 19  1  0
 17 20  1  0
M  CHG  1   8   1
M  END
>  <PDB_ID>  (1823) 
pdb5tbx

>  <RESIDUE_NAME>  (1823) 
LYS   MET

>  <FRAG_NAME>  (1823) 
ETAM   MSM

>  <FRAG_ATOM_NUM>  (1823) 
fragi: 11  fragj: 9

>  <atom.prop.CHAIN_ID>  (1823) 
A A A A A A A A A A A Z Z Z Z Z Z Z Z Z

>  <atom.prop.IS_HEAVY_ATOM>  (1823) 
1 0 0 0 1 0 0 1 0 0 0 1 0 0 0 1 1 0 0 0

>  <DIFUSE_FUNC_ATOM>  (1823) 
n/a

>  <FINAL_SINGLE_POINT_ENERGY>  (1823) 
0

>  <NONCOV_INTER_ENERGY_QM>  (1823) 
0

>  <FF_Energy>  (1823) 
-5.1

>  <QM_Energy>  (1823) 
-14.01

>  <source>  (1823) 
ETAM_MSM

>  <Index>  (1823) 
11601

$$$$
ETAM-pdb5t9a-C-LYS-416:MSM-pdb5t9a-C-MET-499
     RDKit          3D

 20 18  0  0  0  0  0  0  0  0999 V2000
    1.2600    0.8610   -0.0000 C   0  0  0  0  0  0  0  0  0  0  0  0
    2.0481    0.2661    0.1482 H   0  0  0  0  0  0  0  0  0  0  0  0
    1.1901    1.5207    0.7461 H   0  0  0  0  0  0  0  0  0  0  0  0
    1.3975    1.4006   -0.9371 H   0  0  0  0  0  0  0  0  0  0  0  0
    0.0000    0.0000    0.0000 C   0  0  0  0  0  0  0  0  0  0  0  0
    0.0156   -0.5941   -0.8162 H   0  0  0  0  0  0  0  0  0  0  0  0
    0.0148   -0.5942    0.8163 H   0  0  0  0  0  0  0  0  0  0  0  0
   -1.2600    0.7946    0.0000 N   0  0  0  0  0  4  0  0  0  0  0  0
   -1.8620    0.4601    0.7245 H   0  0  0  0  0  0  0  0  0  0  0  0
   -1.0442    1.7572    0.1608 H   0  0  0  0  0  0  0  0  0  0  0  0
   -1.7139    0.6957   -0.8848 H   0  0  0  0  0  0  0  0  0  0  0  0
   -0.7949    4.9286   -1.0090 C   0  0  0  0  0  0  0  0  0  0  0  0
   -1.4871    4.2477   -1.3747 H   0  0  0  0  0  0  0  0  0  0  0  0
   -0.0002    4.8540   -1.6731 H   0  0  0  0  0  0  0  0  0  0  0  0
   -1.2216    5.9271   -1.1040 H   0  0  0  0  0  0  0  0  0  0  0  0
   -0.2726    4.4666    0.6590 S   0  0  0  0  0  0  0  0  0  0  0  0
    0.9899    5.6990    0.9775 C   0  0  0  0  0  0  0  0  0  0  0  0
    1.4148    5.5209    1.8662 H   0  0  0  0  0  0  0  0  0  0  0  0
    1.6873    5.6570    0.2609 H   0  0  0  0  0  0  0  0  0  0  0  0
    0.5752    6.6095    0.9841 H   0  0  0  0  0  0  0  0  0  0  0  0
  1  5  1  0
  5  8  1  0
  1  2  1  0
  1  3  1  0
  1  4  1  0
  5  6  1  0
  5  7  1  0
  8  9  1  0
  8 10  1  0
  8 11  1  0
 12 16  1  0
 16 17  1  0
 12 13  1  0
 12 14  1  0
 12 15  1  0
 17 18  1  0
 17 19  1  0
 17 20  1  0
M  CHG  1   8   1
M  END
>  <PDB_ID>  (1824) 
pdb5t9a

>  <RESIDUE_NAME>  (1824) 
LYS   MET

>  <FRAG_NAME>  (1824) 
ETAM   MSM

>  <FRAG_ATOM_NUM>  (1824) 
fragi: 11  fragj: 9

>  <atom.prop.CHAIN_ID>  (1824) 
A A A A A A A A A A A Z Z Z Z Z Z Z Z Z

>  <atom.prop.IS_HEAVY_ATOM>  (1824) 
1 0 0 0 1 0 0 1 0 0 0 1 0 0 0 1 1 0 0 0

>  <DIFUSE_FUNC_ATOM>  (1824) 
n/a

>  <FINAL_SINGLE_POINT_ENERGY>  (1824) 
0

>  <NONCOV_INTER_ENERGY_QM>  (1824) 
0

>  <FF_Energy>  (1824) 
-4.77

>  <QM_Energy>  (1824) 
-10.34

>  <source>  (1824) 
ETAM_MSM

>  <Index>  (1824) 
11607

$$$$
ETAM-pdb5tc4-A-LYS-237:MSM-pdb5tc4-A-MET-264
     RDKit          3D

 20 18  0  0  0  0  0  0  0  0999 V2000
    1.3194    0.8117    0.0000 C   0  0  0  0  0  0  0  0  0  0  0  0
    1.8981    0.4646    0.7411 H   0  0  0  0  0  0  0  0  0  0  0  0
    1.0938    1.7709    0.1794 H   0  0  0  0  0  0  0  0  0  0  0  0
    1.8825    0.7569   -0.9317 H   0  0  0  0  0  0  0  0  0  0  0  0
    0.0000    0.0000    0.0000 C   0  0  0  0  0  0  0  0  0  0  0  0
    0.0296   -0.6396   -0.8162 H   0  0  0  0  0  0  0  0  0  0  0  0
    0.0294   -0.6402    0.8160 H   0  0  0  0  0  0  0  0  0  0  0  0
   -1.3194    0.7050    0.0000 N   0  0  0  0  0  4  0  0  0  0  0  0
   -1.4926    1.0759    0.9103 H   0  0  0  0  0  0  0  0  0  0  0  0
   -1.2955    1.4464   -0.6684 H   0  0  0  0  0  0  0  0  0  0  0  0
   -2.0378    0.0561   -0.2425 H   0  0  0  0  0  0  0  0  0  0  0  0
   -1.3478   -4.5975   -1.0018 C   0  0  0  0  0  0  0  0  0  0  0  0
   -0.3687   -4.6768   -1.2060 H   0  0  0  0  0  0  0  0  0  0  0  0
   -1.8589   -4.5725   -1.8650 H   0  0  0  0  0  0  0  0  0  0  0  0
   -1.6558   -5.4819   -0.4441 H   0  0  0  0  0  0  0  0  0  0  0  0
   -1.6957   -3.1730    0.0083 S   0  0  0  0  0  0  0  0  0  0  0  0
   -0.4100   -3.3271    1.2600 C   0  0  0  0  0  0  0  0  0  0  0  0
   -0.3096   -2.4564    1.7403 H   0  0  0  0  0  0  0  0  0  0  0  0
   -0.6655   -4.0418    1.9109 H   0  0  0  0  0  0  0  0  0  0  0  0
    0.4536   -3.5687    0.8187 H   0  0  0  0  0  0  0  0  0  0  0  0
  1  5  1  0
  5  8  1  0
  1  2  1  0
  1  3  1  0
  1  4  1  0
  5  6  1  0
  5  7  1  0
  8  9  1  0
  8 10  1  0
  8 11  1  0
 12 16  1  0
 16 17  1  0
 12 13  1  0
 12 14  1  0
 12 15  1  0
 17 18  1  0
 17 19  1  0
 17 20  1  0
M  CHG  1   8   1
M  END
>  <PDB_ID>  (1825) 
pdb5tc4

>  <RESIDUE_NAME>  (1825) 
LYS   MET

>  <FRAG_NAME>  (1825) 
ETAM   MSM

>  <FRAG_ATOM_NUM>  (1825) 
fragi: 11  fragj: 9

>  <atom.prop.CHAIN_ID>  (1825) 
A A A A A A A A A A A Z Z Z Z Z Z Z Z Z

>  <atom.prop.IS_HEAVY_ATOM>  (1825) 
1 0 0 0 1 0 0 1 0 0 0 1 0 0 0 1 1 0 0 0

>  <DIFUSE_FUNC_ATOM>  (1825) 
n/a

>  <FINAL_SINGLE_POINT_ENERGY>  (1825) 
0

>  <NONCOV_INTER_ENERGY_QM>  (1825) 
0

>  <FF_Energy>  (1825) 
-3.78

>  <QM_Energy>  (1825) 
-9.08

>  <source>  (1825) 
ETAM_MSM

>  <Index>  (1825) 
11612

$$$$
ETAM-pdb5tej-A-LYS-19:MSM-pdb5tej-A-MET-237
     RDKit          3D

 20 18  0  0  0  0  0  0  0  0999 V2000
    1.2540    0.8750    0.0000 C   0  0  0  0  0  0  0  0  0  0  0  0
    1.3531    1.2837    0.9039 H   0  0  0  0  0  0  0  0  0  0  0  0
    1.1408    1.5881   -0.6871 H   0  0  0  0  0  0  0  0  0  0  0  0
    2.1560    0.3073   -0.2281 H   0  0  0  0  0  0  0  0  0  0  0  0
    0.0000    0.0000    0.0000 C   0  0  0  0  0  0  0  0  0  0  0  0
    0.0226   -0.5907   -0.8166 H   0  0  0  0  0  0  0  0  0  0  0  0
    0.0227   -0.5915    0.8160 H   0  0  0  0  0  0  0  0  0  0  0  0
   -1.2540    0.7897   -0.0000 N   0  0  0  0  0  4  0  0  0  0  0  0
   -2.0391    0.1717   -0.0560 H   0  0  0  0  0  0  0  0  0  0  0  0
   -1.3121    1.3255    0.8436 H   0  0  0  0  0  0  0  0  0  0  0  0
   -1.2607    1.4073   -0.7874 H   0  0  0  0  0  0  0  0  0  0  0  0
    4.1181    2.7321    4.6610 C   0  0  0  0  0  0  0  0  0  0  0  0
    4.2073    3.3719    3.8731 H   0  0  0  0  0  0  0  0  0  0  0  0
    5.0429    2.6642    5.0832 H   0  0  0  0  0  0  0  0  0  0  0  0
    3.4223    3.1531    5.3869 H   0  0  0  0  0  0  0  0  0  0  0  0
    3.5694    1.0960    4.0841 S   0  0  0  0  0  0  0  0  0  0  0  0
    2.3809    1.6245    2.9065 C   0  0  0  0  0  0  0  0  0  0  0  0
    2.0776    2.5636    3.1066 H   0  0  0  0  0  0  0  0  0  0  0  0
    2.7711    1.6093    1.9780 H   0  0  0  0  0  0  0  0  0  0  0  0
    1.5746    1.0208    2.9213 H   0  0  0  0  0  0  0  0  0  0  0  0
  1  5  1  0
  5  8  1  0
  1  2  1  0
  1  3  1  0
  1  4  1  0
  5  6  1  0
  5  7  1  0
  8  9  1  0
  8 10  1  0
  8 11  1  0
 12 16  1  0
 16 17  1  0
 12 13  1  0
 12 14  1  0
 12 15  1  0
 17 18  1  0
 17 19  1  0
 17 20  1  0
M  CHG  1   8   1
M  END
>  <PDB_ID>  (1826) 
pdb5tej

>  <RESIDUE_NAME>  (1826) 
LYS   MET

>  <FRAG_NAME>  (1826) 
ETAM   MSM

>  <FRAG_ATOM_NUM>  (1826) 
fragi: 11  fragj: 9

>  <atom.prop.CHAIN_ID>  (1826) 
A A A A A A A A A A A Z Z Z Z Z Z Z Z Z

>  <atom.prop.IS_HEAVY_ATOM>  (1826) 
1 0 0 0 1 0 0 1 0 0 0 1 0 0 0 1 1 0 0 0

>  <DIFUSE_FUNC_ATOM>  (1826) 
n/a

>  <FINAL_SINGLE_POINT_ENERGY>  (1826) 
0

>  <NONCOV_INTER_ENERGY_QM>  (1826) 
0

>  <FF_Energy>  (1826) 
8.12

>  <QM_Energy>  (1826) 
2.91

>  <source>  (1826) 
ETAM_MSM

>  <Index>  (1826) 
11615

$$$$
ETAM-pdb5ta7-B-LYS-191:MSM-pdb5ta7-B-MET-264
     RDKit          3D

 20 18  0  0  0  0  0  0  0  0999 V2000
    1.2354    0.8889    0.0000 C   0  0  0  0  0  0  0  0  0  0  0  0
    1.0472    1.6896    0.5549 H   0  0  0  0  0  0  0  0  0  0  0  0
    1.4357    1.1485   -0.9358 H   0  0  0  0  0  0  0  0  0  0  0  0
    2.0918    0.3582    0.4162 H   0  0  0  0  0  0  0  0  0  0  0  0
    0.0000    0.0000    0.0000 C   0  0  0  0  0  0  0  0  0  0  0  0
    0.0119   -0.5723   -0.8163 H   0  0  0  0  0  0  0  0  0  0  0  0
    0.0124   -0.5732    0.8168 H   0  0  0  0  0  0  0  0  0  0  0  0
   -1.2354    0.8308   -0.0000 N   0  0  0  0  0  4  0  0  0  0  0  0
   -1.8967    0.4405   -0.6395 H   0  0  0  0  0  0  0  0  0  0  0  0
   -1.6262    0.8438    0.9199 H   0  0  0  0  0  0  0  0  0  0  0  0
   -1.0083    1.7626   -0.2801 H   0  0  0  0  0  0  0  0  0  0  0  0
   -2.5544    1.2956   -4.7784 C   0  0  0  0  0  0  0  0  0  0  0  0
   -1.7525    0.7886   -5.2061 H   0  0  0  0  0  0  0  0  0  0  0  0
   -2.1420    2.2133   -4.5103 H   0  0  0  0  0  0  0  0  0  0  0  0
   -3.2920    1.4750   -5.5604 H   0  0  0  0  0  0  0  0  0  0  0  0
   -3.1462    0.4149   -3.3074 S   0  0  0  0  0  0  0  0  0  0  0  0
   -3.7772   -1.0871   -4.0290 C   0  0  0  0  0  0  0  0  0  0  0  0
   -3.0158   -1.6671   -4.3286 H   0  0  0  0  0  0  0  0  0  0  0  0
   -4.3227   -1.5866   -3.3527 H   0  0  0  0  0  0  0  0  0  0  0  0
   -4.3541   -0.8687   -4.8192 H   0  0  0  0  0  0  0  0  0  0  0  0
  1  5  1  0
  5  8  1  0
  1  2  1  0
  1  3  1  0
  1  4  1  0
  5  6  1  0
  5  7  1  0
  8  9  1  0
  8 10  1  0
  8 11  1  0
 12 16  1  0
 16 17  1  0
 12 13  1  0
 12 14  1  0
 12 15  1  0
 17 18  1  0
 17 19  1  0
 17 20  1  0
M  CHG  1   8   1
M  END
>  <PDB_ID>  (1827) 
pdb5ta7

>  <RESIDUE_NAME>  (1827) 
LYS   MET

>  <FRAG_NAME>  (1827) 
ETAM   MSM

>  <FRAG_ATOM_NUM>  (1827) 
fragi: 11  fragj: 9

>  <atom.prop.CHAIN_ID>  (1827) 
A A A A A A A A A A A Z Z Z Z Z Z Z Z Z

>  <atom.prop.IS_HEAVY_ATOM>  (1827) 
1 0 0 0 1 0 0 1 0 0 0 1 0 0 0 1 1 0 0 0

>  <DIFUSE_FUNC_ATOM>  (1827) 
n/a

>  <FINAL_SINGLE_POINT_ENERGY>  (1827) 
0

>  <NONCOV_INTER_ENERGY_QM>  (1827) 
0

>  <FF_Energy>  (1827) 
-4.76

>  <QM_Energy>  (1827) 
-11.72

>  <source>  (1827) 
ETAM_MSM

>  <Index>  (1827) 
11626

$$$$
ETAM-pdb5tuc-A-LYS-340:MSM-pdb5tuc-A-MET-450
     RDKit          3D

 20 18  0  0  0  0  0  0  0  0999 V2000
    1.2549    0.8667   -0.0000 C   0  0  0  0  0  0  0  0  0  0  0  0
    1.1188    1.6218   -0.6403 H   0  0  0  0  0  0  0  0  0  0  0  0
    2.0259    0.3071   -0.2991 H   0  0  0  0  0  0  0  0  0  0  0  0
    1.4823    1.2793    0.9829 H   0  0  0  0  0  0  0  0  0  0  0  0
    0.0000    0.0000    0.0000 C   0  0  0  0  0  0  0  0  0  0  0  0
    0.0143   -0.5898   -0.8161 H   0  0  0  0  0  0  0  0  0  0  0  0
    0.0143   -0.5898    0.8169 H   0  0  0  0  0  0  0  0  0  0  0  0
   -1.2549    0.8018    0.0000 N   0  0  0  0  0  4  0  0  0  0  0  0
   -1.0356    1.7611    0.1752 H   0  0  0  0  0  0  0  0  0  0  0  0
   -1.7017    0.7177   -0.8901 H   0  0  0  0  0  0  0  0  0  0  0  0
   -1.8653    0.4616    0.7154 H   0  0  0  0  0  0  0  0  0  0  0  0
   -2.5233    0.4630    4.8344 C   0  0  0  0  0  0  0  0  0  0  0  0
   -2.7807    1.2073    5.4647 H   0  0  0  0  0  0  0  0  0  0  0  0
   -1.9319   -0.1815    5.3378 H   0  0  0  0  0  0  0  0  0  0  0  0
   -3.4208   -0.0537    4.4944 H   0  0  0  0  0  0  0  0  0  0  0  0
   -1.6646    1.1198    3.3963 S   0  0  0  0  0  0  0  0  0  0  0  0
   -0.5599    2.2742    4.1888 C   0  0  0  0  0  0  0  0  0  0  0  0
   -0.2567    2.9628    3.5269 H   0  0  0  0  0  0  0  0  0  0  0  0
   -1.0322    2.7313    4.9452 H   0  0  0  0  0  0  0  0  0  0  0  0
    0.2396    1.7878    4.5470 H   0  0  0  0  0  0  0  0  0  0  0  0
  1  5  1  0
  5  8  1  0
  1  2  1  0
  1  3  1  0
  1  4  1  0
  5  6  1  0
  5  7  1  0
  8  9  1  0
  8 10  1  0
  8 11  1  0
 12 16  1  0
 16 17  1  0
 12 13  1  0
 12 14  1  0
 12 15  1  0
 17 18  1  0
 17 19  1  0
 17 20  1  0
M  CHG  1   8   1
M  END
>  <PDB_ID>  (1828) 
pdb5tuc

>  <RESIDUE_NAME>  (1828) 
LYS   MET

>  <FRAG_NAME>  (1828) 
ETAM   MSM

>  <FRAG_ATOM_NUM>  (1828) 
fragi: 11  fragj: 9

>  <atom.prop.CHAIN_ID>  (1828) 
A A A A A A A A A A A Z Z Z Z Z Z Z Z Z

>  <atom.prop.IS_HEAVY_ATOM>  (1828) 
1 0 0 0 1 0 0 1 0 0 0 1 0 0 0 1 1 0 0 0

>  <DIFUSE_FUNC_ATOM>  (1828) 
n/a

>  <FINAL_SINGLE_POINT_ENERGY>  (1828) 
0

>  <NONCOV_INTER_ENERGY_QM>  (1828) 
0

>  <FF_Energy>  (1828) 
-5.71

>  <QM_Energy>  (1828) 
-13.23

>  <source>  (1828) 
ETAM_MSM

>  <Index>  (1828) 
11647

$$$$
ETAM-pdb5tvw-A-LYS-535:MSM-pdb5tvw-A-MET-532
     RDKit          3D

 20 18  0  0  0  0  0  0  0  0999 V2000
    1.2657    0.8551    0.0000 C   0  0  0  0  0  0  0  0  0  0  0  0
    1.1839    1.5387   -0.7205 H   0  0  0  0  0  0  0  0  0  0  0  0
    2.0469    0.2619   -0.1784 H   0  0  0  0  0  0  0  0  0  0  0  0
    1.4193    1.3635    0.9518 H   0  0  0  0  0  0  0  0  0  0  0  0
    0.0000    0.0000    0.0000 C   0  0  0  0  0  0  0  0  0  0  0  0
    0.0154   -0.5979   -0.8162 H   0  0  0  0  0  0  0  0  0  0  0  0
    0.0140   -0.5981    0.8164 H   0  0  0  0  0  0  0  0  0  0  0  0
   -1.2657    0.7893   -0.0000 N   0  0  0  0  0  4  0  0  0  0  0  0
   -2.0448    0.1635    0.0141 H   0  0  0  0  0  0  0  0  0  0  0  0
   -1.2902    1.3735    0.8099 H   0  0  0  0  0  0  0  0  0  0  0  0
   -1.3024    1.3541   -0.8237 H   0  0  0  0  0  0  0  0  0  0  0  0
   -4.9195   -2.2153    1.0953 C   0  0  0  0  0  0  0  0  0  0  0  0
   -4.3918   -3.0740    1.2857 H   0  0  0  0  0  0  0  0  0  0  0  0
   -5.8956   -2.5108    0.9881 H   0  0  0  0  0  0  0  0  0  0  0  0
   -4.8477   -1.5655    1.9675 H   0  0  0  0  0  0  0  0  0  0  0  0
   -4.3252   -1.4228   -0.4129 S   0  0  0  0  0  0  0  0  0  0  0  0
   -4.5124   -2.7512   -1.6018 C   0  0  0  0  0  0  0  0  0  0  0  0
   -3.7973   -3.4362   -1.4543 H   0  0  0  0  0  0  0  0  0  0  0  0
   -5.4102   -3.1790   -1.4880 H   0  0  0  0  0  0  0  0  0  0  0  0
   -4.4342   -2.3844   -2.5300 H   0  0  0  0  0  0  0  0  0  0  0  0
  1  5  1  0
  5  8  1  0
  1  2  1  0
  1  3  1  0
  1  4  1  0
  5  6  1  0
  5  7  1  0
  8  9  1  0
  8 10  1  0
  8 11  1  0
 12 16  1  0
 16 17  1  0
 12 13  1  0
 12 14  1  0
 12 15  1  0
 17 18  1  0
 17 19  1  0
 17 20  1  0
M  CHG  1   8   1
M  END
>  <PDB_ID>  (1829) 
pdb5tvw

>  <RESIDUE_NAME>  (1829) 
LYS   MET

>  <FRAG_NAME>  (1829) 
ETAM   MSM

>  <FRAG_ATOM_NUM>  (1829) 
fragi: 11  fragj: 9

>  <atom.prop.CHAIN_ID>  (1829) 
A A A A A A A A A A A Z Z Z Z Z Z Z Z Z

>  <atom.prop.IS_HEAVY_ATOM>  (1829) 
1 0 0 0 1 0 0 1 0 0 0 1 0 0 0 1 1 0 0 0

>  <DIFUSE_FUNC_ATOM>  (1829) 
n/a

>  <FINAL_SINGLE_POINT_ENERGY>  (1829) 
0

>  <NONCOV_INTER_ENERGY_QM>  (1829) 
0

>  <FF_Energy>  (1829) 
-4.85

>  <QM_Energy>  (1829) 
-13.25

>  <source>  (1829) 
ETAM_MSM

>  <Index>  (1829) 
11655

$$$$
ETAM-pdb5tuc-B-LYS-340:MSM-pdb5tuc-B-MET-450
     RDKit          3D

 20 18  0  0  0  0  0  0  0  0999 V2000
    1.2516    0.8593    0.0000 C   0  0  0  0  0  0  0  0  0  0  0  0
    1.1188    1.6159   -0.6404 H   0  0  0  0  0  0  0  0  0  0  0  0
    2.0233    0.2989   -0.3003 H   0  0  0  0  0  0  0  0  0  0  0  0
    1.4806    1.2710    0.9829 H   0  0  0  0  0  0  0  0  0  0  0  0
    0.0000    0.0000    0.0000 C   0  0  0  0  0  0  0  0  0  0  0  0
    0.0133   -0.5934   -0.8162 H   0  0  0  0  0  0  0  0  0  0  0  0
    0.0132   -0.5937    0.8162 H   0  0  0  0  0  0  0  0  0  0  0  0
   -1.2516    0.7989   -0.0000 N   0  0  0  0  0  4  0  0  0  0  0  0
   -1.8828    0.4296   -0.6824 H   0  0  0  0  0  0  0  0  0  0  0  0
   -1.6756    0.7550    0.9050 H   0  0  0  0  0  0  0  0  0  0  0  0
   -1.0400    1.7503   -0.2231 H   0  0  0  0  0  0  0  0  0  0  0  0
   -2.7295    0.6272    4.5299 C   0  0  0  0  0  0  0  0  0  0  0  0
   -2.9250    1.3639    5.2322 H   0  0  0  0  0  0  0  0  0  0  0  0
   -2.0642   -0.0059    5.0108 H   0  0  0  0  0  0  0  0  0  0  0  0
   -3.6533    0.0773    4.3502 H   0  0  0  0  0  0  0  0  0  0  0  0
   -1.9873    1.3304    3.0595 S   0  0  0  0  0  0  0  0  0  0  0  0
   -0.8264    2.4611    3.8154 C   0  0  0  0  0  0  0  0  0  0  0  0
   -0.7995    3.3152    3.2932 H   0  0  0  0  0  0  0  0  0  0  0  0
   -1.1103    2.6569    4.7552 H   0  0  0  0  0  0  0  0  0  0  0  0
    0.0871    2.0501    3.8244 H   0  0  0  0  0  0  0  0  0  0  0  0
  1  5  1  0
  5  8  1  0
  1  2  1  0
  1  3  1  0
  1  4  1  0
  5  6  1  0
  5  7  1  0
  8  9  1  0
  8 10  1  0
  8 11  1  0
 12 16  1  0
 16 17  1  0
 12 13  1  0
 12 14  1  0
 12 15  1  0
 17 18  1  0
 17 19  1  0
 17 20  1  0
M  CHG  1   8   1
M  END
>  <PDB_ID>  (1830) 
pdb5tuc

>  <RESIDUE_NAME>  (1830) 
LYS   MET

>  <FRAG_NAME>  (1830) 
ETAM   MSM

>  <FRAG_ATOM_NUM>  (1830) 
fragi: 11  fragj: 9

>  <atom.prop.CHAIN_ID>  (1830) 
A A A A A A A A A A A Z Z Z Z Z Z Z Z Z

>  <atom.prop.IS_HEAVY_ATOM>  (1830) 
1 0 0 0 1 0 0 1 0 0 0 1 0 0 0 1 1 0 0 0

>  <DIFUSE_FUNC_ATOM>  (1830) 
n/a

>  <FINAL_SINGLE_POINT_ENERGY>  (1830) 
0

>  <NONCOV_INTER_ENERGY_QM>  (1830) 
0

>  <FF_Energy>  (1830) 
-5.88

>  <QM_Energy>  (1830) 
-15.36

>  <source>  (1830) 
ETAM_MSM

>  <Index>  (1830) 
11657

$$$$
ETAM-pdb5tsh-C-LYS-311:MSM-pdb5tsh-C-MET-297
     RDKit          3D

 20 18  0  0  0  0  0  0  0  0999 V2000
    1.2545    0.8629   -0.0000 C   0  0  0  0  0  0  0  0  0  0  0  0
    1.2691    1.4014   -0.8387 H   0  0  0  0  0  0  0  0  0  0  0  0
    2.0505    0.2645    0.0369 H   0  0  0  0  0  0  0  0  0  0  0  0
    1.2825    1.5404    0.8534 H   0  0  0  0  0  0  0  0  0  0  0  0
    0.0000    0.0000    0.0000 C   0  0  0  0  0  0  0  0  0  0  0  0
    0.0142   -0.5918   -0.8159 H   0  0  0  0  0  0  0  0  0  0  0  0
    0.0139   -0.5923    0.8162 H   0  0  0  0  0  0  0  0  0  0  0  0
   -1.2545    0.7998    0.0000 N   0  0  0  0  0  4  0  0  0  0  0  0
   -1.8892    0.4213    0.6730 H   0  0  0  0  0  0  0  0  0  0  0  0
   -1.0432    1.7483    0.2363 H   0  0  0  0  0  0  0  0  0  0  0  0
   -1.6697    0.7654   -0.9081 H   0  0  0  0  0  0  0  0  0  0  0  0
   -4.2110    3.5205    0.2627 C   0  0  0  0  0  0  0  0  0  0  0  0
   -4.9298    4.2081    0.4715 H   0  0  0  0  0  0  0  0  0  0  0  0
   -4.5832    2.6141    0.5326 H   0  0  0  0  0  0  0  0  0  0  0  0
   -4.0232    3.5211   -0.8109 H   0  0  0  0  0  0  0  0  0  0  0  0
   -2.6982    3.8833    1.1667 S   0  0  0  0  0  0  0  0  0  0  0  0
   -2.0367    5.1672    0.1150 C   0  0  0  0  0  0  0  0  0  0  0  0
   -2.7698    5.7947   -0.1539 H   0  0  0  0  0  0  0  0  0  0  0  0
   -1.3298    5.6779    0.6083 H   0  0  0  0  0  0  0  0  0  0  0  0
   -1.6347    4.7574   -0.7060 H   0  0  0  0  0  0  0  0  0  0  0  0
  1  5  1  0
  5  8  1  0
  1  2  1  0
  1  3  1  0
  1  4  1  0
  5  6  1  0
  5  7  1  0
  8  9  1  0
  8 10  1  0
  8 11  1  0
 12 16  1  0
 16 17  1  0
 12 13  1  0
 12 14  1  0
 12 15  1  0
 17 18  1  0
 17 19  1  0
 17 20  1  0
M  CHG  1   8   1
M  END
>  <PDB_ID>  (1831) 
pdb5tsh

>  <RESIDUE_NAME>  (1831) 
LYS   MET

>  <FRAG_NAME>  (1831) 
ETAM   MSM

>  <FRAG_ATOM_NUM>  (1831) 
fragi: 11  fragj: 9

>  <atom.prop.CHAIN_ID>  (1831) 
A A A A A A A A A A A Z Z Z Z Z Z Z Z Z

>  <atom.prop.IS_HEAVY_ATOM>  (1831) 
1 0 0 0 1 0 0 1 0 0 0 1 0 0 0 1 1 0 0 0

>  <DIFUSE_FUNC_ATOM>  (1831) 
n/a

>  <FINAL_SINGLE_POINT_ENERGY>  (1831) 
0

>  <NONCOV_INTER_ENERGY_QM>  (1831) 
0

>  <FF_Energy>  (1831) 
-4.15

>  <QM_Energy>  (1831) 
-11.65

>  <source>  (1831) 
ETAM_MSM

>  <Index>  (1831) 
11669

$$$$
ETAM-pdb5u8u-B-LYS-4:MSM-pdb5u8u-B-MET-1
     RDKit          3D

 20 18  0  0  0  0  0  0  0  0999 V2000
    1.2621    0.8811    0.0000 C   0  0  0  0  0  0  0  0  0  0  0  0
    1.2120    1.4756   -0.7649 H   0  0  0  0  0  0  0  0  0  0  0  0
    2.0336    0.2983   -0.0841 H   0  0  0  0  0  0  0  0  0  0  0  0
    1.3660    1.4776    0.9064 H   0  0  0  0  0  0  0  0  0  0  0  0
    0.0000    0.0000    0.0000 C   0  0  0  0  0  0  0  0  0  0  0  0
    0.0019   -0.5552   -0.7960 H   0  0  0  0  0  0  0  0  0  0  0  0
    0.0015   -0.5563    0.7942 H   0  0  0  0  0  0  0  0  0  0  0  0
   -1.2621    0.8089    0.0000 N   0  0  0  0  0  4  0  0  0  0  0  0
   -1.9693    0.2681   -0.0004 H   0  0  0  0  0  0  0  0  0  0  0  0
   -1.2927    1.3242    0.7249 H   0  0  0  0  0  0  0  0  0  0  0  0
   -1.2916    1.3250   -0.7239 H   0  0  0  0  0  0  0  0  0  0  0  0
    4.3706   -2.8281   -0.1030 C   0  0  0  0  0  0  0  0  0  0  0  0
    5.0654   -2.5139   -0.7504 H   0  0  0  0  0  0  0  0  0  0  0  0
    4.2623   -3.8190   -0.1888 H   0  0  0  0  0  0  0  0  0  0  0  0
    4.6650   -2.5700    0.9143 H   0  0  0  0  0  0  0  0  0  0  0  0
    2.7787   -1.9934   -0.4423 S   0  0  0  0  0  0  0  0  0  0  0  0
    1.7650   -2.7311    0.8431 C   0  0  0  0  0  0  0  0  0  0  0  0
    0.8125   -2.4483    0.7203 H   0  0  0  0  0  0  0  0  0  0  0  0
    1.8259   -3.7276    0.7863 H   0  0  0  0  0  0  0  0  0  0  0  0
    2.0892   -2.4271    1.7390 H   0  0  0  0  0  0  0  0  0  0  0  0
  1  5  1  0
  5  8  1  0
  1  2  1  0
  1  3  1  0
  1  4  1  0
  5  6  1  0
  5  7  1  0
  8  9  1  0
  8 10  1  0
  8 11  1  0
 12 16  1  0
 16 17  1  0
 12 13  1  0
 12 14  1  0
 12 15  1  0
 17 18  1  0
 17 19  1  0
 17 20  1  0
M  CHG  1   8   1
M  END
>  <PDB_ID>  (1832) 
pdb5u8u

>  <RESIDUE_NAME>  (1832) 
LYS   MET

>  <FRAG_NAME>  (1832) 
ETAM   MSM

>  <FRAG_ATOM_NUM>  (1832) 
fragi: 11  fragj: 9

>  <atom.prop.CHAIN_ID>  (1832) 
A A A A A A A A A A A Z Z Z Z Z Z Z Z Z

>  <atom.prop.IS_HEAVY_ATOM>  (1832) 
1 0 0 0 1 0 0 1 0 0 0 1 0 0 0 1 1 0 0 0

>  <DIFUSE_FUNC_ATOM>  (1832) 
n/a

>  <FINAL_SINGLE_POINT_ENERGY>  (1832) 
0

>  <NONCOV_INTER_ENERGY_QM>  (1832) 
0

>  <FF_Energy>  (1832) 
2.58

>  <QM_Energy>  (1832) 
-3.51

>  <source>  (1832) 
ETAM_MSM

>  <Index>  (1832) 
11686

$$$$
ETAM-pdb5u9p-C-LYS-173:MSM-pdb5u9p-C-MET-170
     RDKit          3D

 20 18  0  0  0  0  0  0  0  0999 V2000
    1.2479    0.8957    0.0000 C   0  0  0  0  0  0  0  0  0  0  0  0
    1.2821    1.3899    0.8616 H   0  0  0  0  0  0  0  0  0  0  0  0
    1.1820    1.5286   -0.7633 H   0  0  0  0  0  0  0  0  0  0  0  0
    2.1677    0.3201   -0.1049 H   0  0  0  0  0  0  0  0  0  0  0  0
    0.0000    0.0000    0.0000 C   0  0  0  0  0  0  0  0  0  0  0  0
    0.0121   -0.5675   -0.8159 H   0  0  0  0  0  0  0  0  0  0  0  0
    0.0108   -0.5677    0.8163 H   0  0  0  0  0  0  0  0  0  0  0  0
   -1.2479    0.8390    0.0000 N   0  0  0  0  0  4  0  0  0  0  0  0
   -2.0255    0.2636    0.2441 H   0  0  0  0  0  0  0  0  0  0  0  0
   -1.1448    1.5734    0.6666 H   0  0  0  0  0  0  0  0  0  0  0  0
   -1.3811    1.2219   -0.9109 H   0  0  0  0  0  0  0  0  0  0  0  0
    0.5155    0.5063    5.1292 C   0  0  0  0  0  0  0  0  0  0  0  0
   -0.2054   -0.2195    5.2158 H   0  0  0  0  0  0  0  0  0  0  0  0
    0.3348    1.1610    5.8996 H   0  0  0  0  0  0  0  0  0  0  0  0
    1.4912    0.0463    5.2859 H   0  0  0  0  0  0  0  0  0  0  0  0
    0.3621    1.3604    3.5247 S   0  0  0  0  0  0  0  0  0  0  0  0
    1.7537    2.4855    3.4357 C   0  0  0  0  0  0  0  0  0  0  0  0
    2.4560    2.2032    4.0901 H   0  0  0  0  0  0  0  0  0  0  0  0
    2.1368    2.4729    2.5111 H   0  0  0  0  0  0  0  0  0  0  0  0
    1.4492    3.4135    3.6562 H   0  0  0  0  0  0  0  0  0  0  0  0
  1  5  1  0
  5  8  1  0
  1  2  1  0
  1  3  1  0
  1  4  1  0
  5  6  1  0
  5  7  1  0
  8  9  1  0
  8 10  1  0
  8 11  1  0
 12 16  1  0
 16 17  1  0
 12 13  1  0
 12 14  1  0
 12 15  1  0
 17 18  1  0
 17 19  1  0
 17 20  1  0
M  CHG  1   8   1
M  END
>  <PDB_ID>  (1833) 
pdb5u9p

>  <RESIDUE_NAME>  (1833) 
LYS   MET

>  <FRAG_NAME>  (1833) 
ETAM   MSM

>  <FRAG_ATOM_NUM>  (1833) 
fragi: 11  fragj: 9

>  <atom.prop.CHAIN_ID>  (1833) 
A A A A A A A A A A A Z Z Z Z Z Z Z Z Z

>  <atom.prop.IS_HEAVY_ATOM>  (1833) 
1 0 0 0 1 0 0 1 0 0 0 1 0 0 0 1 1 0 0 0

>  <DIFUSE_FUNC_ATOM>  (1833) 
n/a

>  <FINAL_SINGLE_POINT_ENERGY>  (1833) 
0

>  <NONCOV_INTER_ENERGY_QM>  (1833) 
0

>  <FF_Energy>  (1833) 
-4.54

>  <QM_Energy>  (1833) 
-10.91

>  <source>  (1833) 
ETAM_MSM

>  <Index>  (1833) 
11692

$$$$
ETAM-pdb5u9p-D-LYS-173:MSM-pdb5u9p-D-MET-170
     RDKit          3D

 20 18  0  0  0  0  0  0  0  0999 V2000
    1.2495    0.8900    0.0000 C   0  0  0  0  0  0  0  0  0  0  0  0
    1.2512    1.4279    0.8273 H   0  0  0  0  0  0  0  0  0  0  0  0
    1.2289    1.4603   -0.8054 H   0  0  0  0  0  0  0  0  0  0  0  0
    2.1504    0.2769   -0.0244 H   0  0  0  0  0  0  0  0  0  0  0  0
    0.0000    0.0000    0.0000 C   0  0  0  0  0  0  0  0  0  0  0  0
    0.0200   -0.5784   -0.8157 H   0  0  0  0  0  0  0  0  0  0  0  0
    0.0197   -0.5788    0.8165 H   0  0  0  0  0  0  0  0  0  0  0  0
   -1.2495    0.8125    0.0000 N   0  0  0  0  0  4  0  0  0  0  0  0
   -2.0402    0.2027   -0.0424 H   0  0  0  0  0  0  0  0  0  0  0  0
   -1.2900    1.3573    0.8369 H   0  0  0  0  0  0  0  0  0  0  0  0
   -1.2495    1.4180   -0.7951 H   0  0  0  0  0  0  0  0  0  0  0  0
    0.6176    0.4000    5.1626 C   0  0  0  0  0  0  0  0  0  0  0  0
   -0.1125   -0.3281    5.2530 H   0  0  0  0  0  0  0  0  0  0  0  0
    0.4442    1.0347    5.9611 H   0  0  0  0  0  0  0  0  0  0  0  0
    1.5907   -0.0708    5.3019 H   0  0  0  0  0  0  0  0  0  0  0  0
    0.4250    1.2935    3.5954 S   0  0  0  0  0  0  0  0  0  0  0  0
    1.7876    2.4423    3.5324 C   0  0  0  0  0  0  0  0  0  0  0  0
    2.3288    2.3735    4.3735 H   0  0  0  0  0  0  0  0  0  0  0  0
    2.3737    2.2313    2.7471 H   0  0  0  0  0  0  0  0  0  0  0  0
    1.4388    3.3779    3.4408 H   0  0  0  0  0  0  0  0  0  0  0  0
  1  5  1  0
  5  8  1  0
  1  2  1  0
  1  3  1  0
  1  4  1  0
  5  6  1  0
  5  7  1  0
  8  9  1  0
  8 10  1  0
  8 11  1  0
 12 16  1  0
 16 17  1  0
 12 13  1  0
 12 14  1  0
 12 15  1  0
 17 18  1  0
 17 19  1  0
 17 20  1  0
M  CHG  1   8   1
M  END
>  <PDB_ID>  (1834) 
pdb5u9p

>  <RESIDUE_NAME>  (1834) 
LYS   MET

>  <FRAG_NAME>  (1834) 
ETAM   MSM

>  <FRAG_ATOM_NUM>  (1834) 
fragi: 11  fragj: 9

>  <atom.prop.CHAIN_ID>  (1834) 
A A A A A A A A A A A Z Z Z Z Z Z Z Z Z

>  <atom.prop.IS_HEAVY_ATOM>  (1834) 
1 0 0 0 1 0 0 1 0 0 0 1 0 0 0 1 1 0 0 0

>  <DIFUSE_FUNC_ATOM>  (1834) 
n/a

>  <FINAL_SINGLE_POINT_ENERGY>  (1834) 
0

>  <NONCOV_INTER_ENERGY_QM>  (1834) 
0

>  <FF_Energy>  (1834) 
-4.9

>  <QM_Energy>  (1834) 
-11.06

>  <source>  (1834) 
ETAM_MSM

>  <Index>  (1834) 
11693

$$$$
ETAM-pdb5ud6-B-LYS-162:MSM-pdb5ud6-B-MET-166
     RDKit          3D

 20 18  0  0  0  0  0  0  0  0999 V2000
    1.2677    0.8598    0.0000 C   0  0  0  0  0  0  0  0  0  0  0  0
    1.0722    1.6906   -0.4956 H   0  0  0  0  0  0  0  0  0  0  0  0
    1.9882    0.3402   -0.4300 H   0  0  0  0  0  0  0  0  0  0  0  0
    1.5392    1.0948    1.0292 H   0  0  0  0  0  0  0  0  0  0  0  0
    0.0000    0.0000    0.0000 C   0  0  0  0  0  0  0  0  0  0  0  0
    0.0084   -0.5884   -0.8163 H   0  0  0  0  0  0  0  0  0  0  0  0
    0.0077   -0.5891    0.8162 H   0  0  0  0  0  0  0  0  0  0  0  0
   -1.2677    0.8120   -0.0000 N   0  0  0  0  0  4  0  0  0  0  0  0
   -1.0313    1.7798    0.0411 H   0  0  0  0  0  0  0  0  0  0  0  0
   -1.7745    0.6195   -0.8369 H   0  0  0  0  0  0  0  0  0  0  0  0
   -1.8130    0.5602    0.7956 H   0  0  0  0  0  0  0  0  0  0  0  0
   -2.4674    3.5836    1.6592 C   0  0  0  0  0  0  0  0  0  0  0  0
   -3.3880    3.3502    1.2661 H   0  0  0  0  0  0  0  0  0  0  0  0
   -1.7899    3.3211    0.9327 H   0  0  0  0  0  0  0  0  0  0  0  0
   -2.4132    4.6592    1.8272 H   0  0  0  0  0  0  0  0  0  0  0  0
   -2.1684    2.5249    3.1843 S   0  0  0  0  0  0  0  0  0  0  0  0
   -1.0835    3.5081    4.1820 C   0  0  0  0  0  0  0  0  0  0  0  0
   -0.9054    3.0474    5.0560 H   0  0  0  0  0  0  0  0  0  0  0  0
   -0.2101    3.6496    3.7071 H   0  0  0  0  0  0  0  0  0  0  0  0
   -1.4998    4.4030    4.3669 H   0  0  0  0  0  0  0  0  0  0  0  0
  1  5  1  0
  5  8  1  0
  1  2  1  0
  1  3  1  0
  1  4  1  0
  5  6  1  0
  5  7  1  0
  8  9  1  0
  8 10  1  0
  8 11  1  0
 12 16  1  0
 16 17  1  0
 12 13  1  0
 12 14  1  0
 12 15  1  0
 17 18  1  0
 17 19  1  0
 17 20  1  0
M  CHG  1   8   1
M  END
>  <PDB_ID>  (1835) 
pdb5ud6

>  <RESIDUE_NAME>  (1835) 
LYS   MET

>  <FRAG_NAME>  (1835) 
ETAM   MSM

>  <FRAG_ATOM_NUM>  (1835) 
fragi: 11  fragj: 9

>  <atom.prop.CHAIN_ID>  (1835) 
A A A A A A A A A A A Z Z Z Z Z Z Z Z Z

>  <atom.prop.IS_HEAVY_ATOM>  (1835) 
1 0 0 0 1 0 0 1 0 0 0 1 0 0 0 1 1 0 0 0

>  <DIFUSE_FUNC_ATOM>  (1835) 
n/a

>  <FINAL_SINGLE_POINT_ENERGY>  (1835) 
0

>  <NONCOV_INTER_ENERGY_QM>  (1835) 
0

>  <FF_Energy>  (1835) 
-2.49

>  <QM_Energy>  (1835) 
-7.84

>  <source>  (1835) 
ETAM_MSM

>  <Index>  (1835) 
11698

$$$$
ETAM-pdb5u96-A-LYS-362:MSM-pdb5u96-A-MET-383
     RDKit          3D

 20 18  0  0  0  0  0  0  0  0999 V2000
    1.2506    0.8676   -0.0000 C   0  0  0  0  0  0  0  0  0  0  0  0
    0.9744    1.8214    0.0342 H   0  0  0  0  0  0  0  0  0  0  0  0
    1.7647    0.6826   -0.8302 H   0  0  0  0  0  0  0  0  0  0  0  0
    1.8815    0.6520    0.8623 H   0  0  0  0  0  0  0  0  0  0  0  0
    0.0000    0.0000    0.0000 C   0  0  0  0  0  0  0  0  0  0  0  0
    0.0132   -0.5885   -0.8164 H   0  0  0  0  0  0  0  0  0  0  0  0
    0.0134   -0.5883    0.8168 H   0  0  0  0  0  0  0  0  0  0  0  0
   -1.2506    0.8059    0.0000 N   0  0  0  0  0  4  0  0  0  0  0  0
   -1.1885    1.5150   -0.7021 H   0  0  0  0  0  0  0  0  0  0  0  0
   -2.0289    0.2100   -0.1941 H   0  0  0  0  0  0  0  0  0  0  0  0
   -1.3703    1.2320    0.8957 H   0  0  0  0  0  0  0  0  0  0  0  0
   -1.8355   -1.2919    4.8726 C   0  0  0  0  0  0  0  0  0  0  0  0
   -2.0268   -2.2614    4.5904 H   0  0  0  0  0  0  0  0  0  0  0  0
   -2.7363   -0.8042    4.7863 H   0  0  0  0  0  0  0  0  0  0  0  0
   -1.5409   -1.2903    5.9221 H   0  0  0  0  0  0  0  0  0  0  0  0
   -0.6014   -0.5446    3.7915 S   0  0  0  0  0  0  0  0  0  0  0  0
    0.5717   -1.8877    3.6316 C   0  0  0  0  0  0  0  0  0  0  0  0
    1.4644   -1.5240    3.3608 H   0  0  0  0  0  0  0  0  0  0  0  0
    0.6604   -2.3632    4.5082 H   0  0  0  0  0  0  0  0  0  0  0  0
    0.2519   -2.5319    2.9357 H   0  0  0  0  0  0  0  0  0  0  0  0
  1  5  1  0
  5  8  1  0
  1  2  1  0
  1  3  1  0
  1  4  1  0
  5  6  1  0
  5  7  1  0
  8  9  1  0
  8 10  1  0
  8 11  1  0
 12 16  1  0
 16 17  1  0
 12 13  1  0
 12 14  1  0
 12 15  1  0
 17 18  1  0
 17 19  1  0
 17 20  1  0
M  CHG  1   8   1
M  END
>  <PDB_ID>  (1836) 
pdb5u96

>  <RESIDUE_NAME>  (1836) 
LYS   MET

>  <FRAG_NAME>  (1836) 
ETAM   MSM

>  <FRAG_ATOM_NUM>  (1836) 
fragi: 11  fragj: 9

>  <atom.prop.CHAIN_ID>  (1836) 
A A A A A A A A A A A Z Z Z Z Z Z Z Z Z

>  <atom.prop.IS_HEAVY_ATOM>  (1836) 
1 0 0 0 1 0 0 1 0 0 0 1 0 0 0 1 1 0 0 0

>  <DIFUSE_FUNC_ATOM>  (1836) 
n/a

>  <FINAL_SINGLE_POINT_ENERGY>  (1836) 
0

>  <NONCOV_INTER_ENERGY_QM>  (1836) 
0

>  <FF_Energy>  (1836) 
-4.49

>  <QM_Energy>  (1836) 
-9.87

>  <source>  (1836) 
ETAM_MSM

>  <Index>  (1836) 
11707

$$$$
ETAM-pdb5ui3-B-LYS-196:MSM-pdb5ui3-B-MET-170
     RDKit          3D

 20 18  0  0  0  0  0  0  0  0999 V2000
    1.2312    0.8787   -0.0000 C   0  0  0  0  0  0  0  0  0  0  0  0
    1.4450    1.1291    0.9599 H   0  0  0  0  0  0  0  0  0  0  0  0
    1.0096    1.7394   -0.4910 H   0  0  0  0  0  0  0  0  0  0  0  0
    2.1263    0.4486   -0.4492 H   0  0  0  0  0  0  0  0  0  0  0  0
    0.0000    0.0000    0.0000 C   0  0  0  0  0  0  0  0  0  0  0  0
    0.0023   -0.5705   -0.8163 H   0  0  0  0  0  0  0  0  0  0  0  0
    0.0017   -0.5712    0.8169 H   0  0  0  0  0  0  0  0  0  0  0  0
   -1.2312    0.8462   -0.0000 N   0  0  0  0  0  4  0  0  0  0  0  0
   -1.0894    1.6321    0.5992 H   0  0  0  0  0  0  0  0  0  0  0  0
   -1.4144    1.1601   -0.9302 H   0  0  0  0  0  0  0  0  0  0  0  0
   -2.0024    0.3044    0.3311 H   0  0  0  0  0  0  0  0  0  0  0  0
   -3.2905   -2.5976   -0.4946 C   0  0  0  0  0  0  0  0  0  0  0  0
   -4.1196   -1.9747   -0.4509 H   0  0  0  0  0  0  0  0  0  0  0  0
   -2.8078   -2.4305    0.4092 H   0  0  0  0  0  0  0  0  0  0  0  0
   -3.6405   -3.6298   -0.5096 H   0  0  0  0  0  0  0  0  0  0  0  0
   -2.2268   -2.1364   -1.8725 S   0  0  0  0  0  0  0  0  0  0  0  0
   -0.8685   -3.2822   -1.6398 C   0  0  0  0  0  0  0  0  0  0  0  0
   -1.1961   -4.2199   -1.7646 H   0  0  0  0  0  0  0  0  0  0  0  0
   -0.1494   -3.0895   -2.3091 H   0  0  0  0  0  0  0  0  0  0  0  0
   -0.4987   -3.1803   -0.7157 H   0  0  0  0  0  0  0  0  0  0  0  0
  1  5  1  0
  5  8  1  0
  1  2  1  0
  1  3  1  0
  1  4  1  0
  5  6  1  0
  5  7  1  0
  8  9  1  0
  8 10  1  0
  8 11  1  0
 12 16  1  0
 16 17  1  0
 12 13  1  0
 12 14  1  0
 12 15  1  0
 17 18  1  0
 17 19  1  0
 17 20  1  0
M  CHG  1   8   1
M  END
>  <PDB_ID>  (1837) 
pdb5ui3

>  <RESIDUE_NAME>  (1837) 
LYS   MET

>  <FRAG_NAME>  (1837) 
ETAM   MSM

>  <FRAG_ATOM_NUM>  (1837) 
fragi: 11  fragj: 9

>  <atom.prop.CHAIN_ID>  (1837) 
A A A A A A A A A A A Z Z Z Z Z Z Z Z Z

>  <atom.prop.IS_HEAVY_ATOM>  (1837) 
1 0 0 0 1 0 0 1 0 0 0 1 0 0 0 1 1 0 0 0

>  <DIFUSE_FUNC_ATOM>  (1837) 
n/a

>  <FINAL_SINGLE_POINT_ENERGY>  (1837) 
0

>  <NONCOV_INTER_ENERGY_QM>  (1837) 
0

>  <FF_Energy>  (1837) 
-3.97

>  <QM_Energy>  (1837) 
-9.74

>  <source>  (1837) 
ETAM_MSM

>  <Index>  (1837) 
11714

$$$$
ETAM-pdb5ucd-B-LYS-219:MSM-pdb5ucd-B-MET-334
     RDKit          3D

 20 18  0  0  0  0  0  0  0  0999 V2000
    1.2421    0.8770   -0.0000 C   0  0  0  0  0  0  0  0  0  0  0  0
    1.2257    1.4521   -0.8146 H   0  0  0  0  0  0  0  0  0  0  0  0
    2.0476    0.2882   -0.0154 H   0  0  0  0  0  0  0  0  0  0  0  0
    1.2937    1.5187    0.8795 H   0  0  0  0  0  0  0  0  0  0  0  0
    0.0000    0.0000    0.0000 C   0  0  0  0  0  0  0  0  0  0  0  0
    0.0128   -0.5809   -0.8166 H   0  0  0  0  0  0  0  0  0  0  0  0
    0.0123   -0.5806    0.8161 H   0  0  0  0  0  0  0  0  0  0  0  0
   -1.2421    0.8182    0.0000 N   0  0  0  0  0  4  0  0  0  0  0  0
   -1.5283    0.9875   -0.9426 H   0  0  0  0  0  0  0  0  0  0  0  0
   -1.9641    0.3261    0.4850 H   0  0  0  0  0  0  0  0  0  0  0  0
   -1.0655    1.6899    0.4578 H   0  0  0  0  0  0  0  0  0  0  0  0
   -2.6120   -3.7328   -1.8832 C   0  0  0  0  0  0  0  0  0  0  0  0
   -3.5577   -3.5846   -2.2491 H   0  0  0  0  0  0  0  0  0  0  0  0
   -2.4770   -4.7485   -1.8689 H   0  0  0  0  0  0  0  0  0  0  0  0
   -1.8987   -3.2975   -2.5830 H   0  0  0  0  0  0  0  0  0  0  0  0
   -2.4521   -3.0443   -0.2276 S   0  0  0  0  0  0  0  0  0  0  0  0
   -0.8723   -3.7072    0.2751 C   0  0  0  0  0  0  0  0  0  0  0  0
   -0.7608   -4.6323   -0.0930 H   0  0  0  0  0  0  0  0  0  0  0  0
   -0.1347   -3.1239   -0.0705 H   0  0  0  0  0  0  0  0  0  0  0  0
   -0.8227   -3.7425    1.2759 H   0  0  0  0  0  0  0  0  0  0  0  0
  1  5  1  0
  5  8  1  0
  1  2  1  0
  1  3  1  0
  1  4  1  0
  5  6  1  0
  5  7  1  0
  8  9  1  0
  8 10  1  0
  8 11  1  0
 12 16  1  0
 16 17  1  0
 12 13  1  0
 12 14  1  0
 12 15  1  0
 17 18  1  0
 17 19  1  0
 17 20  1  0
M  CHG  1   8   1
M  END
>  <PDB_ID>  (1838) 
pdb5ucd

>  <RESIDUE_NAME>  (1838) 
LYS   MET

>  <FRAG_NAME>  (1838) 
ETAM   MSM

>  <FRAG_ATOM_NUM>  (1838) 
fragi: 11  fragj: 9

>  <atom.prop.CHAIN_ID>  (1838) 
A A A A A A A A A A A Z Z Z Z Z Z Z Z Z

>  <atom.prop.IS_HEAVY_ATOM>  (1838) 
1 0 0 0 1 0 0 1 0 0 0 1 0 0 0 1 1 0 0 0

>  <DIFUSE_FUNC_ATOM>  (1838) 
n/a

>  <FINAL_SINGLE_POINT_ENERGY>  (1838) 
0

>  <NONCOV_INTER_ENERGY_QM>  (1838) 
0

>  <FF_Energy>  (1838) 
-4.02

>  <QM_Energy>  (1838) 
-9.04

>  <source>  (1838) 
ETAM_MSM

>  <Index>  (1838) 
11717

$$$$
ETAM-pdb5upx-A-LYS-412:MSM-pdb5upx-A-MET-397
     RDKit          3D

 20 18  0  0  0  0  0  0  0  0999 V2000
    1.2236    0.8816   -0.0000 C   0  0  0  0  0  0  0  0  0  0  0  0
    1.3806    1.2123    0.9239 H   0  0  0  0  0  0  0  0  0  0  0  0
    1.0703    1.6415   -0.6208 H   0  0  0  0  0  0  0  0  0  0  0  0
    2.0992    0.3230   -0.3305 H   0  0  0  0  0  0  0  0  0  0  0  0
    0.0000    0.0000    0.0000 C   0  0  0  0  0  0  0  0  0  0  0  0
    0.0157   -0.5798   -0.8165 H   0  0  0  0  0  0  0  0  0  0  0  0
    0.0144   -0.5798    0.8159 H   0  0  0  0  0  0  0  0  0  0  0  0
   -1.2236    0.8168    0.0000 N   0  0  0  0  0  4  0  0  0  0  0  0
   -2.0126    0.2474    0.2397 H   0  0  0  0  0  0  0  0  0  0  0  0
   -1.1382    1.5579    0.6699 H   0  0  0  0  0  0  0  0  0  0  0  0
   -1.3689    1.2120   -0.9097 H   0  0  0  0  0  0  0  0  0  0  0  0
    0.5260    0.9767   -4.9841 C   0  0  0  0  0  0  0  0  0  0  0  0
    0.6711    1.9840   -4.8815 H   0  0  0  0  0  0  0  0  0  0  0  0
   -0.4601    0.8579   -5.2290 H   0  0  0  0  0  0  0  0  0  0  0  0
    1.1387    0.6171   -5.8108 H   0  0  0  0  0  0  0  0  0  0  0  0
    0.9094    0.1194   -3.4518 S   0  0  0  0  0  0  0  0  0  0  0  0
    0.2601   -1.5221   -3.7892 C   0  0  0  0  0  0  0  0  0  0  0  0
    0.7266   -2.1900   -3.2087 H   0  0  0  0  0  0  0  0  0  0  0  0
   -0.7208   -1.5382   -3.5956 H   0  0  0  0  0  0  0  0  0  0  0  0
    0.4140   -1.7495   -4.7506 H   0  0  0  0  0  0  0  0  0  0  0  0
  1  5  1  0
  5  8  1  0
  1  2  1  0
  1  3  1  0
  1  4  1  0
  5  6  1  0
  5  7  1  0
  8  9  1  0
  8 10  1  0
  8 11  1  0
 12 16  1  0
 16 17  1  0
 12 13  1  0
 12 14  1  0
 12 15  1  0
 17 18  1  0
 17 19  1  0
 17 20  1  0
M  CHG  1   8   1
M  END
>  <PDB_ID>  (1839) 
pdb5upx

>  <RESIDUE_NAME>  (1839) 
LYS   MET

>  <FRAG_NAME>  (1839) 
ETAM   MSM

>  <FRAG_ATOM_NUM>  (1839) 
fragi: 11  fragj: 9

>  <atom.prop.CHAIN_ID>  (1839) 
A A A A A A A A A A A Z Z Z Z Z Z Z Z Z

>  <atom.prop.IS_HEAVY_ATOM>  (1839) 
1 0 0 0 1 0 0 1 0 0 0 1 0 0 0 1 1 0 0 0

>  <DIFUSE_FUNC_ATOM>  (1839) 
n/a

>  <FINAL_SINGLE_POINT_ENERGY>  (1839) 
0

>  <NONCOV_INTER_ENERGY_QM>  (1839) 
0

>  <FF_Energy>  (1839) 
-3.95

>  <QM_Energy>  (1839) 
-9.83

>  <source>  (1839) 
ETAM_MSM

>  <Index>  (1839) 
11723

$$$$
ETAM-pdb5uv4-A-LYS-777:MSM-pdb5uv4-A-MET-785
     RDKit          3D

 20 18  0  0  0  0  0  0  0  0999 V2000
    1.2370    0.8513   -0.0000 C   0  0  0  0  0  0  0  0  0  0  0  0
    1.1154    1.5904    0.6645 H   0  0  0  0  0  0  0  0  0  0  0  0
    1.3539    1.2441   -0.9138 H   0  0  0  0  0  0  0  0  0  0  0  0
    2.1255    0.2764    0.2612 H   0  0  0  0  0  0  0  0  0  0  0  0
    0.0000    0.0000    0.0000 C   0  0  0  0  0  0  0  0  0  0  0  0
   -0.0051   -0.5832   -0.8164 H   0  0  0  0  0  0  0  0  0  0  0  0
   -0.0056   -0.5832    0.8167 H   0  0  0  0  0  0  0  0  0  0  0  0
   -1.2370    0.8380    0.0000 N   0  0  0  0  0  4  0  0  0  0  0  0
   -1.8663    0.4944    0.6949 H   0  0  0  0  0  0  0  0  0  0  0  0
   -0.9933    1.7841    0.2050 H   0  0  0  0  0  0  0  0  0  0  0  0
   -1.6678    0.7887   -0.8995 H   0  0  0  0  0  0  0  0  0  0  0  0
   -0.8056   -4.1493   -0.1290 C   0  0  0  0  0  0  0  0  0  0  0  0
   -0.4656   -3.9122   -1.0714 H   0  0  0  0  0  0  0  0  0  0  0  0
   -1.3197   -5.0338   -0.2476 H   0  0  0  0  0  0  0  0  0  0  0  0
    0.0558   -4.3312    0.5138 H   0  0  0  0  0  0  0  0  0  0  0  0
   -1.9103   -2.8547    0.4898 S   0  0  0  0  0  0  0  0  0  0  0  0
   -2.7287   -3.7165    1.8518 C   0  0  0  0  0  0  0  0  0  0  0  0
   -2.7319   -4.6968    1.6646 H   0  0  0  0  0  0  0  0  0  0  0  0
   -2.2323   -3.5361    2.6993 H   0  0  0  0  0  0  0  0  0  0  0  0
   -3.6663   -3.3848    1.9324 H   0  0  0  0  0  0  0  0  0  0  0  0
  1  5  1  0
  5  8  1  0
  1  2  1  0
  1  3  1  0
  1  4  1  0
  5  6  1  0
  5  7  1  0
  8  9  1  0
  8 10  1  0
  8 11  1  0
 12 16  1  0
 16 17  1  0
 12 13  1  0
 12 14  1  0
 12 15  1  0
 17 18  1  0
 17 19  1  0
 17 20  1  0
M  CHG  1   8   1
M  END
>  <PDB_ID>  (1840) 
pdb5uv4

>  <RESIDUE_NAME>  (1840) 
LYS   MET

>  <FRAG_NAME>  (1840) 
ETAM   MSM

>  <FRAG_ATOM_NUM>  (1840) 
fragi: 11  fragj: 9

>  <atom.prop.CHAIN_ID>  (1840) 
A A A A A A A A A A A Z Z Z Z Z Z Z Z Z

>  <atom.prop.IS_HEAVY_ATOM>  (1840) 
1 0 0 0 1 0 0 1 0 0 0 1 0 0 0 1 1 0 0 0

>  <DIFUSE_FUNC_ATOM>  (1840) 
n/a

>  <FINAL_SINGLE_POINT_ENERGY>  (1840) 
0

>  <NONCOV_INTER_ENERGY_QM>  (1840) 
0

>  <FF_Energy>  (1840) 
-5.03

>  <QM_Energy>  (1840) 
-10.62

>  <source>  (1840) 
ETAM_MSM

>  <Index>  (1840) 
11733

$$$$
ETAM-pdb5ur2-C-LYS-113:MSM-pdb5ur2-C-MET-109
     RDKit          3D

 20 18  0  0  0  0  0  0  0  0999 V2000
    1.2331    0.8751    0.0000 C   0  0  0  0  0  0  0  0  0  0  0  0
    1.2140    1.4546    0.8167 H   0  0  0  0  0  0  0  0  0  0  0  0
    1.2131    1.4544   -0.8160 H   0  0  0  0  0  0  0  0  0  0  0  0
    2.1584    0.2989    0.0003 H   0  0  0  0  0  0  0  0  0  0  0  0
    0.0000    0.0000    0.0000 C   0  0  0  0  0  0  0  0  0  0  0  0
    0.0083   -0.5780   -0.8163 H   0  0  0  0  0  0  0  0  0  0  0  0
    0.0077   -0.5784    0.8170 H   0  0  0  0  0  0  0  0  0  0  0  0
   -1.2331    0.8272   -0.0000 N   0  0  0  0  0  4  0  0  0  0  0  0
   -1.0793    1.6541    0.5420 H   0  0  0  0  0  0  0  0  0  0  0  0
   -1.4638    1.0818   -0.9384 H   0  0  0  0  0  0  0  0  0  0  0  0
   -1.9861    0.3031    0.3981 H   0  0  0  0  0  0  0  0  0  0  0  0
   -0.2476   -1.6202    2.7276 C   0  0  0  0  0  0  0  0  0  0  0  0
    0.3423   -1.9416    1.9853 H   0  0  0  0  0  0  0  0  0  0  0  0
   -1.2048   -1.6876    2.4425 H   0  0  0  0  0  0  0  0  0  0  0  0
   -0.0807   -2.2185    3.6232 H   0  0  0  0  0  0  0  0  0  0  0  0
    0.1591    0.1139    3.1410 S   0  0  0  0  0  0  0  0  0  0  0  0
   -1.0196    0.3996    4.4660 C   0  0  0  0  0  0  0  0  0  0  0  0
   -1.8956    0.6859    4.0779 H   0  0  0  0  0  0  0  0  0  0  0  0
   -1.1462   -0.4450    4.9875 H   0  0  0  0  0  0  0  0  0  0  0  0
   -0.6733    1.1166    5.0718 H   0  0  0  0  0  0  0  0  0  0  0  0
  1  5  1  0
  5  8  1  0
  1  2  1  0
  1  3  1  0
  1  4  1  0
  5  6  1  0
  5  7  1  0
  8  9  1  0
  8 10  1  0
  8 11  1  0
 12 16  1  0
 16 17  1  0
 12 13  1  0
 12 14  1  0
 12 15  1  0
 17 18  1  0
 17 19  1  0
 17 20  1  0
M  CHG  1   8   1
M  END
>  <PDB_ID>  (1841) 
pdb5ur2

>  <RESIDUE_NAME>  (1841) 
LYS   MET

>  <FRAG_NAME>  (1841) 
ETAM   MSM

>  <FRAG_ATOM_NUM>  (1841) 
fragi: 11  fragj: 9

>  <atom.prop.CHAIN_ID>  (1841) 
A A A A A A A A A A A Z Z Z Z Z Z Z Z Z

>  <atom.prop.IS_HEAVY_ATOM>  (1841) 
1 0 0 0 1 0 0 1 0 0 0 1 0 0 0 1 1 0 0 0

>  <DIFUSE_FUNC_ATOM>  (1841) 
n/a

>  <FINAL_SINGLE_POINT_ENERGY>  (1841) 
0

>  <NONCOV_INTER_ENERGY_QM>  (1841) 
0

>  <FF_Energy>  (1841) 
12.61

>  <QM_Energy>  (1841) 
-6.22

>  <source>  (1841) 
ETAM_MSM

>  <Index>  (1841) 
11735

$$$$
ETAM-pdb5uxw-A-LYS-183:MSM-pdb5uxw-A-MET-179
     RDKit          3D

 20 18  0  0  0  0  0  0  0  0999 V2000
    1.2322    0.8768    0.0000 C   0  0  0  0  0  0  0  0  0  0  0  0
    1.2142    1.4554    0.8165 H   0  0  0  0  0  0  0  0  0  0  0  0
    1.2143    1.4545   -0.8170 H   0  0  0  0  0  0  0  0  0  0  0  0
    2.1570    0.2999    0.0011 H   0  0  0  0  0  0  0  0  0  0  0  0
    0.0000    0.0000    0.0000 C   0  0  0  0  0  0  0  0  0  0  0  0
    0.0078   -0.5783   -0.8157 H   0  0  0  0  0  0  0  0  0  0  0  0
    0.0084   -0.5775    0.8171 H   0  0  0  0  0  0  0  0  0  0  0  0
   -1.2322    0.8277   -0.0000 N   0  0  0  0  0  4  0  0  0  0  0  0
   -1.1457    1.5549   -0.6823 H   0  0  0  0  0  0  0  0  0  0  0  0
   -2.0199    0.2532   -0.2246 H   0  0  0  0  0  0  0  0  0  0  0  0
   -1.3624    1.2331    0.9054 H   0  0  0  0  0  0  0  0  0  0  0  0
    0.6354    1.8424    2.9813 C   0  0  0  0  0  0  0  0  0  0  0  0
    1.3346    2.5704    2.8050 H   0  0  0  0  0  0  0  0  0  0  0  0
    0.8383    1.0949    2.3108 H   0  0  0  0  0  0  0  0  0  0  0  0
    0.7799    1.4566    3.9904 H   0  0  0  0  0  0  0  0  0  0  0  0
   -1.0275    2.4840    2.7335 S   0  0  0  0  0  0  0  0  0  0  0  0
   -0.9271    4.0412    3.5568 C   0  0  0  0  0  0  0  0  0  0  0  0
   -0.4265    3.9456    4.4240 H   0  0  0  0  0  0  0  0  0  0  0  0
   -0.4459    4.7103    2.9807 H   0  0  0  0  0  0  0  0  0  0  0  0
   -1.8491    4.3912    3.7549 H   0  0  0  0  0  0  0  0  0  0  0  0
  1  5  1  0
  5  8  1  0
  1  2  1  0
  1  3  1  0
  1  4  1  0
  5  6  1  0
  5  7  1  0
  8  9  1  0
  8 10  1  0
  8 11  1  0
 12 16  1  0
 16 17  1  0
 12 13  1  0
 12 14  1  0
 12 15  1  0
 17 18  1  0
 17 19  1  0
 17 20  1  0
M  CHG  1   8   1
M  END
>  <PDB_ID>  (1842) 
pdb5uxw

>  <RESIDUE_NAME>  (1842) 
LYS   MET

>  <FRAG_NAME>  (1842) 
ETAM   MSM

>  <FRAG_ATOM_NUM>  (1842) 
fragi: 11  fragj: 9

>  <atom.prop.CHAIN_ID>  (1842) 
A A A A A A A A A A A Z Z Z Z Z Z Z Z Z

>  <atom.prop.IS_HEAVY_ATOM>  (1842) 
1 0 0 0 1 0 0 1 0 0 0 1 0 0 0 1 1 0 0 0

>  <DIFUSE_FUNC_ATOM>  (1842) 
n/a

>  <FINAL_SINGLE_POINT_ENERGY>  (1842) 
0

>  <NONCOV_INTER_ENERGY_QM>  (1842) 
0

>  <FF_Energy>  (1842) 
14.86

>  <QM_Energy>  (1842) 
-7.9

>  <source>  (1842) 
ETAM_MSM

>  <Index>  (1842) 
11749

$$$$
ETAM-pdb5uzc-A-LYS-294:MSM-pdb5uzc-A-MET-357
     RDKit          3D

 20 18  0  0  0  0  0  0  0  0999 V2000
    1.2970    0.8828    0.0000 C   0  0  0  0  0  0  0  0  0  0  0  0
    1.3029    1.4181   -0.8318 H   0  0  0  0  0  0  0  0  0  0  0  0
    2.0780    0.2790    0.0449 H   0  0  0  0  0  0  0  0  0  0  0  0
    1.3358    1.5644    0.8497 H   0  0  0  0  0  0  0  0  0  0  0  0
    0.0000    0.0000    0.0000 C   0  0  0  0  0  0  0  0  0  0  0  0
    0.0200   -0.5838   -0.8158 H   0  0  0  0  0  0  0  0  0  0  0  0
    0.0197   -0.5845    0.8163 H   0  0  0  0  0  0  0  0  0  0  0  0
   -1.2970    0.8025    0.0000 N   0  0  0  0  0  4  0  0  0  0  0  0
   -1.0736    1.7589    0.1506 H   0  0  0  0  0  0  0  0  0  0  0  0
   -1.7398    0.6824   -0.8818 H   0  0  0  0  0  0  0  0  0  0  0  0
   -1.8769    0.4599    0.7305 H   0  0  0  0  0  0  0  0  0  0  0  0
    1.1399    2.2346   -4.7514 C   0  0  0  0  0  0  0  0  0  0  0  0
    0.5484    3.0623   -4.9272 H   0  0  0  0  0  0  0  0  0  0  0  0
    1.2610    1.8009   -5.6805 H   0  0  0  0  0  0  0  0  0  0  0  0
    2.1162    2.5889   -4.4203 H   0  0  0  0  0  0  0  0  0  0  0  0
    0.3049    1.0804   -3.6089 S   0  0  0  0  0  0  0  0  0  0  0  0
    1.3310   -0.3729   -3.6879 C   0  0  0  0  0  0  0  0  0  0  0  0
    2.1429   -0.2493   -3.1118 H   0  0  0  0  0  0  0  0  0  0  0  0
    0.8174   -1.1713   -3.3634 H   0  0  0  0  0  0  0  0  0  0  0  0
    1.6218   -0.5335   -4.6339 H   0  0  0  0  0  0  0  0  0  0  0  0
  1  5  1  0
  5  8  1  0
  1  2  1  0
  1  3  1  0
  1  4  1  0
  5  6  1  0
  5  7  1  0
  8  9  1  0
  8 10  1  0
  8 11  1  0
 12 16  1  0
 16 17  1  0
 12 13  1  0
 12 14  1  0
 12 15  1  0
 17 18  1  0
 17 19  1  0
 17 20  1  0
M  CHG  1   8   1
M  END
>  <PDB_ID>  (1843) 
pdb5uzc

>  <RESIDUE_NAME>  (1843) 
LYS   MET

>  <FRAG_NAME>  (1843) 
ETAM   MSM

>  <FRAG_ATOM_NUM>  (1843) 
fragi: 11  fragj: 9

>  <atom.prop.CHAIN_ID>  (1843) 
A A A A A A A A A A A Z Z Z Z Z Z Z Z Z

>  <atom.prop.IS_HEAVY_ATOM>  (1843) 
1 0 0 0 1 0 0 1 0 0 0 1 0 0 0 1 1 0 0 0

>  <DIFUSE_FUNC_ATOM>  (1843) 
n/a

>  <FINAL_SINGLE_POINT_ENERGY>  (1843) 
0

>  <NONCOV_INTER_ENERGY_QM>  (1843) 
0

>  <FF_Energy>  (1843) 
-5.05

>  <QM_Energy>  (1843) 
-10.19

>  <source>  (1843) 
ETAM_MSM

>  <Index>  (1843) 
11757

$$$$
ETAM-pdb5v2l-A-LYS-20:MSM-pdb5v2l-A-MET-195
     RDKit          3D

 20 18  0  0  0  0  0  0  0  0999 V2000
    1.2401    0.8759   -0.0000 C   0  0  0  0  0  0  0  0  0  0  0  0
    1.3332    1.2631   -0.8851 H   0  0  0  0  0  0  0  0  0  0  0  0
    2.0049    0.3118    0.1962 H   0  0  0  0  0  0  0  0  0  0  0  0
    1.1950    1.6795    0.7351 H   0  0  0  0  0  0  0  0  0  0  0  0
    0.0000    0.0000    0.0000 C   0  0  0  0  0  0  0  0  0  0  0  0
    0.0039   -0.5558   -0.7948 H   0  0  0  0  0  0  0  0  0  0  0  0
    0.0041   -0.5559    0.7946 H   0  0  0  0  0  0  0  0  0  0  0  0
   -1.2401    0.7856    0.0000 N   0  0  0  0  0  4  0  0  0  0  0  0
   -1.9444    0.2418    0.0001 H   0  0  0  0  0  0  0  0  0  0  0  0
   -1.2730    1.3015    0.7239 H   0  0  0  0  0  0  0  0  0  0  0  0
   -1.2732    1.3016   -0.7242 H   0  0  0  0  0  0  0  0  0  0  0  0
   -2.9726    5.1765    0.1734 C   0  0  0  0  0  0  0  0  0  0  0  0
   -2.1859    5.2311   -0.3911 H   0  0  0  0  0  0  0  0  0  0  0  0
   -2.9969    5.9447    0.7646 H   0  0  0  0  0  0  0  0  0  0  0  0
   -3.8541    5.2119   -0.4667 H   0  0  0  0  0  0  0  0  0  0  0  0
   -2.7817    3.6804    1.2315 S   0  0  0  0  0  0  0  0  0  0  0  0
   -4.3096    3.7038    2.0221 C   0  0  0  0  0  0  0  0  0  0  0  0
   -4.3605    2.9509    2.6323 H   0  0  0  0  0  0  0  0  0  0  0  0
   -4.3976    4.5351    2.5138 H   0  0  0  0  0  0  0  0  0  0  0  0
   -5.0107    3.6375    1.3556 H   0  0  0  0  0  0  0  0  0  0  0  0
  1  5  1  0
  5  8  1  0
  1  2  1  0
  1  3  1  0
  1  4  1  0
  5  6  1  0
  5  7  1  0
  8  9  1  0
  8 10  1  0
  8 11  1  0
 12 16  1  0
 16 17  1  0
 12 13  1  0
 12 14  1  0
 12 15  1  0
 17 18  1  0
 17 19  1  0
 17 20  1  0
M  CHG  1   8   1
M  END
>  <PDB_ID>  (1844) 
pdb5v2l

>  <RESIDUE_NAME>  (1844) 
LYS   MET

>  <FRAG_NAME>  (1844) 
ETAM   MSM

>  <FRAG_ATOM_NUM>  (1844) 
fragi: 11  fragj: 9

>  <atom.prop.CHAIN_ID>  (1844) 
A A A A A A A A A A A Z Z Z Z Z Z Z Z Z

>  <atom.prop.IS_HEAVY_ATOM>  (1844) 
1 0 0 0 1 0 0 1 0 0 0 1 0 0 0 1 1 0 0 0

>  <DIFUSE_FUNC_ATOM>  (1844) 
n/a

>  <FINAL_SINGLE_POINT_ENERGY>  (1844) 
0

>  <NONCOV_INTER_ENERGY_QM>  (1844) 
0

>  <FF_Energy>  (1844) 
-5.08

>  <QM_Energy>  (1844) 
-13.0

>  <source>  (1844) 
ETAM_MSM

>  <Index>  (1844) 
11760

$$$$
ETAM-pdb5uwx-C-LYS-294:MSM-pdb5uwx-C-MET-357
     RDKit          3D

 20 18  0  0  0  0  0  0  0  0999 V2000
    1.2260    0.8759    0.0000 C   0  0  0  0  0  0  0  0  0  0  0  0
    1.1027    1.6061   -0.6698 H   0  0  0  0  0  0  0  0  0  0  0  0
    2.0191    0.3221   -0.2461 H   0  0  0  0  0  0  0  0  0  0  0  0
    1.4051    1.3270    0.9760 H   0  0  0  0  0  0  0  0  0  0  0  0
    0.0000    0.0000    0.0000 C   0  0  0  0  0  0  0  0  0  0  0  0
    0.0040   -0.5746   -0.8158 H   0  0  0  0  0  0  0  0  0  0  0  0
    0.0039   -0.5744    0.8168 H   0  0  0  0  0  0  0  0  0  0  0  0
   -1.2260    0.8388   -0.0000 N   0  0  0  0  0  4  0  0  0  0  0  0
   -1.3642    1.2262    0.9119 H   0  0  0  0  0  0  0  0  0  0  0  0
   -1.1234    1.5782   -0.6651 H   0  0  0  0  0  0  0  0  0  0  0  0
   -2.0148    0.2754   -0.2462 H   0  0  0  0  0  0  0  0  0  0  0  0
    1.1834    3.2273   -4.4184 C   0  0  0  0  0  0  0  0  0  0  0  0
    0.5883    4.0566   -4.5461 H   0  0  0  0  0  0  0  0  0  0  0  0
    1.4060    2.9085   -5.3707 H   0  0  0  0  0  0  0  0  0  0  0  0
    2.1104    3.5467   -3.9424 H   0  0  0  0  0  0  0  0  0  0  0  0
    0.2958    1.9362   -3.5031 S   0  0  0  0  0  0  0  0  0  0  0  0
    1.1709    0.4760   -4.0634 C   0  0  0  0  0  0  0  0  0  0  0  0
    2.1164    0.5051   -3.7355 H   0  0  0  0  0  0  0  0  0  0  0  0
    0.7206   -0.3432   -3.7056 H   0  0  0  0  0  0  0  0  0  0  0  0
    1.1677    0.4460   -5.0638 H   0  0  0  0  0  0  0  0  0  0  0  0
  1  5  1  0
  5  8  1  0
  1  2  1  0
  1  3  1  0
  1  4  1  0
  5  6  1  0
  5  7  1  0
  8  9  1  0
  8 10  1  0
  8 11  1  0
 12 16  1  0
 16 17  1  0
 12 13  1  0
 12 14  1  0
 12 15  1  0
 17 18  1  0
 17 19  1  0
 17 20  1  0
M  CHG  1   8   1
M  END
>  <PDB_ID>  (1845) 
pdb5uwx

>  <RESIDUE_NAME>  (1845) 
LYS   MET

>  <FRAG_NAME>  (1845) 
ETAM   MSM

>  <FRAG_ATOM_NUM>  (1845) 
fragi: 11  fragj: 9

>  <atom.prop.CHAIN_ID>  (1845) 
A A A A A A A A A A A Z Z Z Z Z Z Z Z Z

>  <atom.prop.IS_HEAVY_ATOM>  (1845) 
1 0 0 0 1 0 0 1 0 0 0 1 0 0 0 1 1 0 0 0

>  <DIFUSE_FUNC_ATOM>  (1845) 
n/a

>  <FINAL_SINGLE_POINT_ENERGY>  (1845) 
0

>  <NONCOV_INTER_ENERGY_QM>  (1845) 
0

>  <FF_Energy>  (1845) 
-5.05

>  <QM_Energy>  (1845) 
-10.41

>  <source>  (1845) 
ETAM_MSM

>  <Index>  (1845) 
11765

$$$$
ETAM-pdb5v0t-A-LYS-383:MSM-pdb5v0t-A-MET-378
     RDKit          3D

 20 18  0  0  0  0  0  0  0  0999 V2000
    1.2415    0.8887   -0.0000 C   0  0  0  0  0  0  0  0  0  0  0  0
    1.2615    1.4015    0.8481 H   0  0  0  0  0  0  0  0  0  0  0  0
    1.1939    1.4963   -0.7818 H   0  0  0  0  0  0  0  0  0  0  0  0
    2.1476    0.2871   -0.0718 H   0  0  0  0  0  0  0  0  0  0  0  0
    0.0000    0.0000    0.0000 C   0  0  0  0  0  0  0  0  0  0  0  0
    0.0127   -0.5736   -0.8167 H   0  0  0  0  0  0  0  0  0  0  0  0
    0.0131   -0.5738    0.8161 H   0  0  0  0  0  0  0  0  0  0  0  0
   -1.2415    0.8286   -0.0000 N   0  0  0  0  0  4  0  0  0  0  0  0
   -2.0329    0.2362   -0.1414 H   0  0  0  0  0  0  0  0  0  0  0  0
   -1.3251    1.2976    0.8779 H   0  0  0  0  0  0  0  0  0  0  0  0
   -1.1887    1.5013   -0.7363 H   0  0  0  0  0  0  0  0  0  0  0  0
   -0.8965   -0.1836    4.1313 C   0  0  0  0  0  0  0  0  0  0  0  0
   -1.1328    0.8142    4.0252 H   0  0  0  0  0  0  0  0  0  0  0  0
    0.1216   -0.2295    3.9742 H   0  0  0  0  0  0  0  0  0  0  0  0
   -1.0840   -0.4594    5.1690 H   0  0  0  0  0  0  0  0  0  0  0  0
   -1.7836   -1.1898    2.9125 S   0  0  0  0  0  0  0  0  0  0  0  0
   -3.4948   -0.9125    3.3662 C   0  0  0  0  0  0  0  0  0  0  0  0
   -3.5816   -0.9126    4.3633 H   0  0  0  0  0  0  0  0  0  0  0  0
   -3.7979   -0.0284    3.0077 H   0  0  0  0  0  0  0  0  0  0  0  0
   -4.0658   -1.6401    2.9830 H   0  0  0  0  0  0  0  0  0  0  0  0
  1  5  1  0
  5  8  1  0
  1  2  1  0
  1  3  1  0
  1  4  1  0
  5  6  1  0
  5  7  1  0
  8  9  1  0
  8 10  1  0
  8 11  1  0
 12 16  1  0
 16 17  1  0
 12 13  1  0
 12 14  1  0
 12 15  1  0
 17 18  1  0
 17 19  1  0
 17 20  1  0
M  CHG  1   8   1
M  END
>  <PDB_ID>  (1846) 
pdb5v0t

>  <RESIDUE_NAME>  (1846) 
LYS   MET

>  <FRAG_NAME>  (1846) 
ETAM   MSM

>  <FRAG_ATOM_NUM>  (1846) 
fragi: 11  fragj: 9

>  <atom.prop.CHAIN_ID>  (1846) 
A A A A A A A A A A A Z Z Z Z Z Z Z Z Z

>  <atom.prop.IS_HEAVY_ATOM>  (1846) 
1 0 0 0 1 0 0 1 0 0 0 1 0 0 0 1 1 0 0 0

>  <DIFUSE_FUNC_ATOM>  (1846) 
n/a

>  <FINAL_SINGLE_POINT_ENERGY>  (1846) 
0

>  <NONCOV_INTER_ENERGY_QM>  (1846) 
0

>  <FF_Energy>  (1846) 
-4.36

>  <QM_Energy>  (1846) 
-11.01

>  <source>  (1846) 
ETAM_MSM

>  <Index>  (1846) 
11775

$$$$
ETAM-pdb5v8z-A-LYS-208:MSM-pdb5v8z-B-MET-347
     RDKit          3D

 20 18  0  0  0  0  0  0  0  0999 V2000
    1.2330    0.8752    0.0000 C   0  0  0  0  0  0  0  0  0  0  0  0
    2.0416    0.2935    0.1501 H   0  0  0  0  0  0  0  0  0  0  0  0
    1.1658    1.5274    0.7645 H   0  0  0  0  0  0  0  0  0  0  0  0
    1.3862    1.4407   -0.9192 H   0  0  0  0  0  0  0  0  0  0  0  0
    0.0000    0.0000    0.0000 C   0  0  0  0  0  0  0  0  0  0  0  0
    0.0015   -0.5733   -0.8163 H   0  0  0  0  0  0  0  0  0  0  0  0
    0.0009   -0.5729    0.8162 H   0  0  0  0  0  0  0  0  0  0  0  0
   -1.2330    0.8443    0.0000 N   0  0  0  0  0  4  0  0  0  0  0  0
   -1.1159    1.5963   -0.6459 H   0  0  0  0  0  0  0  0  0  0  0  0
   -2.0144    0.2853   -0.2715 H   0  0  0  0  0  0  0  0  0  0  0  0
   -1.3823    1.2086    0.9181 H   0  0  0  0  0  0  0  0  0  0  0  0
   -0.7340   -2.1770   -4.1105 C   0  0  0  0  0  0  0  0  0  0  0  0
   -1.2464   -2.2979   -3.2195 H   0  0  0  0  0  0  0  0  0  0  0  0
    0.1900   -2.6088   -3.9330 H   0  0  0  0  0  0  0  0  0  0  0  0
   -1.2425   -2.7626   -4.8764 H   0  0  0  0  0  0  0  0  0  0  0  0
   -0.5457   -0.4168   -4.4990 S   0  0  0  0  0  0  0  0  0  0  0  0
   -1.3656    0.2533   -3.0954 C   0  0  0  0  0  0  0  0  0  0  0  0
   -1.0372   -0.1879   -2.2519 H   0  0  0  0  0  0  0  0  0  0  0  0
   -1.1930    1.2428   -3.0261 H   0  0  0  0  0  0  0  0  0  0  0  0
   -2.3593    0.1070   -3.1647 H   0  0  0  0  0  0  0  0  0  0  0  0
  1  5  1  0
  5  8  1  0
  1  2  1  0
  1  3  1  0
  1  4  1  0
  5  6  1  0
  5  7  1  0
  8  9  1  0
  8 10  1  0
  8 11  1  0
 12 16  1  0
 16 17  1  0
 12 13  1  0
 12 14  1  0
 12 15  1  0
 17 18  1  0
 17 19  1  0
 17 20  1  0
M  CHG  1   8   1
M  END
>  <PDB_ID>  (1847) 
pdb5v8z

>  <RESIDUE_NAME>  (1847) 
LYS   MET

>  <FRAG_NAME>  (1847) 
ETAM   MSM

>  <FRAG_ATOM_NUM>  (1847) 
fragi: 11  fragj: 9

>  <atom.prop.CHAIN_ID>  (1847) 
A A A A A A A A A A A Z Z Z Z Z Z Z Z Z

>  <atom.prop.IS_HEAVY_ATOM>  (1847) 
1 0 0 0 1 0 0 1 0 0 0 1 0 0 0 1 1 0 0 0

>  <DIFUSE_FUNC_ATOM>  (1847) 
n/a

>  <FINAL_SINGLE_POINT_ENERGY>  (1847) 
0

>  <NONCOV_INTER_ENERGY_QM>  (1847) 
0

>  <FF_Energy>  (1847) 
6.47

>  <QM_Energy>  (1847) 
1.06

>  <source>  (1847) 
ETAM_MSM

>  <Index>  (1847) 
11799

$$$$
ETAM-pdb5vfa-B-LYS-67:MSM-pdb5vfa-B-MET-59
     RDKit          3D

 20 18  0  0  0  0  0  0  0  0999 V2000
    1.2527    0.8649    0.0000 C   0  0  0  0  0  0  0  0  0  0  0  0
    1.9671    0.3608    0.4205 H   0  0  0  0  0  0  0  0  0  0  0  0
    1.0651    1.6663    0.5130 H   0  0  0  0  0  0  0  0  0  0  0  0
    1.5632    1.1502   -1.0052 H   0  0  0  0  0  0  0  0  0  0  0  0
    0.0000    0.0000    0.0000 C   0  0  0  0  0  0  0  0  0  0  0  0
   -0.0008   -0.5559   -0.7947 H   0  0  0  0  0  0  0  0  0  0  0  0
   -0.0008   -0.5558    0.7943 H   0  0  0  0  0  0  0  0  0  0  0  0
   -1.2527    0.8114    0.0000 N   0  0  0  0  0  4  0  0  0  0  0  0
   -1.9619    0.2743   -0.0001 H   0  0  0  0  0  0  0  0  0  0  0  0
   -1.2810    1.3274    0.7239 H   0  0  0  0  0  0  0  0  0  0  0  0
   -1.2809    1.3272   -0.7250 H   0  0  0  0  0  0  0  0  0  0  0  0
   -4.6160   -2.5865   -0.4995 C   0  0  0  0  0  0  0  0  0  0  0  0
   -4.9312   -3.3811   -0.0400 H   0  0  0  0  0  0  0  0  0  0  0  0
   -4.8580   -2.6315   -1.4379 H   0  0  0  0  0  0  0  0  0  0  0  0
   -5.0892   -1.7114   -0.0541 H   0  0  0  0  0  0  0  0  0  0  0  0
   -2.8274   -2.5652   -0.3945 S   0  0  0  0  0  0  0  0  0  0  0  0
   -2.5556   -2.8405    1.3704 C   0  0  0  0  0  0  0  0  0  0  0  0
   -1.6016   -2.8475    1.5455 H   0  0  0  0  0  0  0  0  0  0  0  0
   -2.9781   -2.1238    1.8703 H   0  0  0  0  0  0  0  0  0  0  0  0
   -2.9442   -3.6935    1.6205 H   0  0  0  0  0  0  0  0  0  0  0  0
  1  5  1  0
  5  8  1  0
  1  2  1  0
  1  3  1  0
  1  4  1  0
  5  6  1  0
  5  7  1  0
  8  9  1  0
  8 10  1  0
  8 11  1  0
 12 16  1  0
 16 17  1  0
 12 13  1  0
 12 14  1  0
 12 15  1  0
 17 18  1  0
 17 19  1  0
 17 20  1  0
M  CHG  1   8   1
M  END
>  <PDB_ID>  (1848) 
pdb5vfa

>  <RESIDUE_NAME>  (1848) 
LYS   MET

>  <FRAG_NAME>  (1848) 
ETAM   MSM

>  <FRAG_ATOM_NUM>  (1848) 
fragi: 11  fragj: 9

>  <atom.prop.CHAIN_ID>  (1848) 
A A A A A A A A A A A Z Z Z Z Z Z Z Z Z

>  <atom.prop.IS_HEAVY_ATOM>  (1848) 
1 0 0 0 1 0 0 1 0 0 0 1 0 0 0 1 1 0 0 0

>  <DIFUSE_FUNC_ATOM>  (1848) 
n/a

>  <FINAL_SINGLE_POINT_ENERGY>  (1848) 
0

>  <NONCOV_INTER_ENERGY_QM>  (1848) 
0

>  <FF_Energy>  (1848) 
-4.41

>  <QM_Energy>  (1848) 
-11.66

>  <source>  (1848) 
ETAM_MSM

>  <Index>  (1848) 
11805

$$$$
ETAM-pdb5vj2-A-LYS-26:MSM-pdb5vj2-A-MET-8
     RDKit          3D

 20 18  0  0  0  0  0  0  0  0999 V2000
    1.2445    0.8739   -0.0000 C   0  0  0  0  0  0  0  0  0  0  0  0
    1.3291    1.3058    0.8953 H   0  0  0  0  0  0  0  0  0  0  0  0
    1.1421    1.5718   -0.7054 H   0  0  0  0  0  0  0  0  0  0  0  0
    2.1500    0.3012   -0.2005 H   0  0  0  0  0  0  0  0  0  0  0  0
    0.0000    0.0000    0.0000 C   0  0  0  0  0  0  0  0  0  0  0  0
    0.0113   -0.5816   -0.8159 H   0  0  0  0  0  0  0  0  0  0  0  0
    0.0109   -0.5820    0.8164 H   0  0  0  0  0  0  0  0  0  0  0  0
   -1.2445    0.8181   -0.0000 N   0  0  0  0  0  4  0  0  0  0  0  0
   -1.5273    0.9911   -0.9424 H   0  0  0  0  0  0  0  0  0  0  0  0
   -1.9668    0.3225    0.4807 H   0  0  0  0  0  0  0  0  0  0  0  0
   -1.0691    1.6872    0.4625 H   0  0  0  0  0  0  0  0  0  0  0  0
    1.7928    0.0920   -4.1445 C   0  0  0  0  0  0  0  0  0  0  0  0
    1.6291   -0.8816   -3.9292 H   0  0  0  0  0  0  0  0  0  0  0  0
    2.6524    0.3671   -3.6895 H   0  0  0  0  0  0  0  0  0  0  0  0
    1.9110    0.2014   -5.2225 H   0  0  0  0  0  0  0  0  0  0  0  0
    0.4122    1.1145   -3.5727 S   0  0  0  0  0  0  0  0  0  0  0  0
    1.1885    2.7259   -3.4734 C   0  0  0  0  0  0  0  0  0  0  0  0
    0.6276    3.3340   -2.9093 H   0  0  0  0  0  0  0  0  0  0  0  0
    2.0966    2.6363   -3.0621 H   0  0  0  0  0  0  0  0  0  0  0  0
    1.2768    3.1133   -4.3922 H   0  0  0  0  0  0  0  0  0  0  0  0
  1  5  1  0
  5  8  1  0
  1  2  1  0
  1  3  1  0
  1  4  1  0
  5  6  1  0
  5  7  1  0
  8  9  1  0
  8 10  1  0
  8 11  1  0
 12 16  1  0
 16 17  1  0
 12 13  1  0
 12 14  1  0
 12 15  1  0
 17 18  1  0
 17 19  1  0
 17 20  1  0
M  CHG  1   8   1
M  END
>  <PDB_ID>  (1849) 
pdb5vj2

>  <RESIDUE_NAME>  (1849) 
LYS   MET

>  <FRAG_NAME>  (1849) 
ETAM   MSM

>  <FRAG_ATOM_NUM>  (1849) 
fragi: 11  fragj: 9

>  <atom.prop.CHAIN_ID>  (1849) 
A A A A A A A A A A A Z Z Z Z Z Z Z Z Z

>  <atom.prop.IS_HEAVY_ATOM>  (1849) 
1 0 0 0 1 0 0 1 0 0 0 1 0 0 0 1 1 0 0 0

>  <DIFUSE_FUNC_ATOM>  (1849) 
n/a

>  <FINAL_SINGLE_POINT_ENERGY>  (1849) 
0

>  <NONCOV_INTER_ENERGY_QM>  (1849) 
0

>  <FF_Energy>  (1849) 
-4.86

>  <QM_Energy>  (1849) 
-10.86

>  <source>  (1849) 
ETAM_MSM

>  <Index>  (1849) 
11808

$$$$
ETAM-pdb5vm2-B-LYS-167:MSM-pdb5vm2-A-MET-162
     RDKit          3D

 20 18  0  0  0  0  0  0  0  0999 V2000
    1.2536    0.8682   -0.0000 C   0  0  0  0  0  0  0  0  0  0  0  0
    1.1531    1.5714    0.7044 H   0  0  0  0  0  0  0  0  0  0  0  0
    1.3366    1.3045   -0.8962 H   0  0  0  0  0  0  0  0  0  0  0  0
    2.1645    0.3039    0.1997 H   0  0  0  0  0  0  0  0  0  0  0  0
    0.0000    0.0000    0.0000 C   0  0  0  0  0  0  0  0  0  0  0  0
    0.0086   -0.5837   -0.8166 H   0  0  0  0  0  0  0  0  0  0  0  0
    0.0086   -0.5842    0.8162 H   0  0  0  0  0  0  0  0  0  0  0  0
   -1.2536    0.8184    0.0000 N   0  0  0  0  0  4  0  0  0  0  0  0
   -1.2862    1.3667   -0.8338 H   0  0  0  0  0  0  0  0  0  0  0  0
   -2.0427    0.2079    0.0356 H   0  0  0  0  0  0  0  0  0  0  0  0
   -1.2535    1.4170    0.7985 H   0  0  0  0  0  0  0  0  0  0  0  0
   -1.2634    3.1112    3.8478 C   0  0  0  0  0  0  0  0  0  0  0  0
   -0.7563    3.7323    4.4746 H   0  0  0  0  0  0  0  0  0  0  0  0
   -1.8484    2.5187    4.4344 H   0  0  0  0  0  0  0  0  0  0  0  0
   -1.9067    3.7126    3.2056 H   0  0  0  0  0  0  0  0  0  0  0  0
   -0.1344    2.1280    2.8667 S   0  0  0  0  0  0  0  0  0  0  0  0
    0.2868    0.8433    4.0375 C   0  0  0  0  0  0  0  0  0  0  0  0
   -0.3835    0.8325    4.7819 H   0  0  0  0  0  0  0  0  0  0  0  0
    0.2848   -0.0465    3.5771 H   0  0  0  0  0  0  0  0  0  0  0  0
    1.1975    1.0171    4.4156 H   0  0  0  0  0  0  0  0  0  0  0  0
  1  5  1  0
  5  8  1  0
  1  2  1  0
  1  3  1  0
  1  4  1  0
  5  6  1  0
  5  7  1  0
  8  9  1  0
  8 10  1  0
  8 11  1  0
 12 16  1  0
 16 17  1  0
 12 13  1  0
 12 14  1  0
 12 15  1  0
 17 18  1  0
 17 19  1  0
 17 20  1  0
M  CHG  1   8   1
M  END
>  <PDB_ID>  (1850) 
pdb5vm2

>  <RESIDUE_NAME>  (1850) 
LYS   MET

>  <FRAG_NAME>  (1850) 
ETAM   MSM

>  <FRAG_ATOM_NUM>  (1850) 
fragi: 11  fragj: 9

>  <atom.prop.CHAIN_ID>  (1850) 
A A A A A A A A A A A Z Z Z Z Z Z Z Z Z

>  <atom.prop.IS_HEAVY_ATOM>  (1850) 
1 0 0 0 1 0 0 1 0 0 0 1 0 0 0 1 1 0 0 0

>  <DIFUSE_FUNC_ATOM>  (1850) 
n/a

>  <FINAL_SINGLE_POINT_ENERGY>  (1850) 
0

>  <NONCOV_INTER_ENERGY_QM>  (1850) 
0

>  <FF_Energy>  (1850) 
-4.02

>  <QM_Energy>  (1850) 
-15.78

>  <source>  (1850) 
ETAM_MSM

>  <Index>  (1850) 
11815

$$$$
ETAM-pdb5vlq-A-LYS-553:MSM-pdb5vlq-A-MET-133
     RDKit          3D

 20 18  0  0  0  0  0  0  0  0999 V2000
    1.2322    0.8820   -0.0000 C   0  0  0  0  0  0  0  0  0  0  0  0
    1.2136    1.4568    0.8168 H   0  0  0  0  0  0  0  0  0  0  0  0
    1.2134    1.4572   -0.8171 H   0  0  0  0  0  0  0  0  0  0  0  0
    2.1567    0.3046    0.0006 H   0  0  0  0  0  0  0  0  0  0  0  0
    0.0000    0.0000    0.0000 C   0  0  0  0  0  0  0  0  0  0  0  0
    0.0116   -0.5764   -0.8161 H   0  0  0  0  0  0  0  0  0  0  0  0
    0.0110   -0.5760    0.8160 H   0  0  0  0  0  0  0  0  0  0  0  0
   -1.2322    0.8276   -0.0000 N   0  0  0  0  0  4  0  0  0  0  0  0
   -1.3184    1.2967    0.8790 H   0  0  0  0  0  0  0  0  0  0  0  0
   -1.1798    1.5038   -0.7357 H   0  0  0  0  0  0  0  0  0  0  0  0
   -2.0285    0.2397   -0.1442 H   0  0  0  0  0  0  0  0  0  0  0  0
   -4.7020    1.4260    1.2976 C   0  0  0  0  0  0  0  0  0  0  0  0
   -4.7097    0.7247    0.6283 H   0  0  0  0  0  0  0  0  0  0  0  0
   -4.8049    2.2920    0.8725 H   0  0  0  0  0  0  0  0  0  0  0  0
   -5.5311    1.2672    1.9873 H   0  0  0  0  0  0  0  0  0  0  0  0
   -3.1014    1.3958    2.1162 S   0  0  0  0  0  0  0  0  0  0  0  0
   -3.0602   -0.2863    2.7354 C   0  0  0  0  0  0  0  0  0  0  0  0
   -2.2248   -0.4279    3.2077 H   0  0  0  0  0  0  0  0  0  0  0  0
   -3.8087   -0.4186    3.3384 H   0  0  0  0  0  0  0  0  0  0  0  0
   -3.1265   -0.8991    1.9859 H   0  0  0  0  0  0  0  0  0  0  0  0
  1  5  1  0
  5  8  1  0
  1  2  1  0
  1  3  1  0
  1  4  1  0
  5  6  1  0
  5  7  1  0
  8  9  1  0
  8 10  1  0
  8 11  1  0
 12 16  1  0
 16 17  1  0
 12 13  1  0
 12 14  1  0
 12 15  1  0
 17 18  1  0
 17 19  1  0
 17 20  1  0
M  CHG  1   8   1
M  END
>  <PDB_ID>  (1851) 
pdb5vlq

>  <RESIDUE_NAME>  (1851) 
LYS   MET

>  <FRAG_NAME>  (1851) 
ETAM   MSM

>  <FRAG_ATOM_NUM>  (1851) 
fragi: 11  fragj: 9

>  <atom.prop.CHAIN_ID>  (1851) 
A A A A A A A A A A A Z Z Z Z Z Z Z Z Z

>  <atom.prop.IS_HEAVY_ATOM>  (1851) 
1 0 0 0 1 0 0 1 0 0 0 1 0 0 0 1 1 0 0 0

>  <DIFUSE_FUNC_ATOM>  (1851) 
n/a

>  <FINAL_SINGLE_POINT_ENERGY>  (1851) 
0

>  <NONCOV_INTER_ENERGY_QM>  (1851) 
0

>  <FF_Energy>  (1851) 
0.02

>  <QM_Energy>  (1851) 
-8.76

>  <source>  (1851) 
ETAM_MSM

>  <Index>  (1851) 
11832

$$$$
ETAM-pdb5vol-D-LYS-195:MSM-pdb5vol-A-MET-168
     RDKit          3D

 20 18  0  0  0  0  0  0  0  0999 V2000
    1.2426    0.8612   -0.0000 C   0  0  0  0  0  0  0  0  0  0  0  0
    2.0385    0.2748   -0.0833 H   0  0  0  0  0  0  0  0  0  0  0  0
    1.2724    1.3796    0.8448 H   0  0  0  0  0  0  0  0  0  0  0  0
    1.2248    1.5546   -0.8408 H   0  0  0  0  0  0  0  0  0  0  0  0
    0.0000    0.0000    0.0000 C   0  0  0  0  0  0  0  0  0  0  0  0
   -0.0066   -0.5752   -0.8163 H   0  0  0  0  0  0  0  0  0  0  0  0
   -0.0062   -0.5758    0.8163 H   0  0  0  0  0  0  0  0  0  0  0  0
   -1.2426    0.8504   -0.0000 N   0  0  0  0  0  4  0  0  0  0  0  0
   -1.4764    1.0815    0.9410 H   0  0  0  0  0  0  0  0  0  0  0  0
   -1.0651    1.6813   -0.5213 H   0  0  0  0  0  0  0  0  0  0  0  0
   -1.9857    0.3359   -0.4194 H   0  0  0  0  0  0  0  0  0  0  0  0
   -3.8933    2.6636    2.9753 C   0  0  0  0  0  0  0  0  0  0  0  0
   -3.0785    3.2113    2.7009 H   0  0  0  0  0  0  0  0  0  0  0  0
   -3.8317    2.5427    3.9855 H   0  0  0  0  0  0  0  0  0  0  0  0
   -4.7898    3.2409    2.7494 H   0  0  0  0  0  0  0  0  0  0  0  0
   -3.9087    1.0717    2.1366 S   0  0  0  0  0  0  0  0  0  0  0  0
   -5.1217    0.1356    3.0558 C   0  0  0  0  0  0  0  0  0  0  0  0
   -5.6238    0.7455    3.6717 H   0  0  0  0  0  0  0  0  0  0  0  0
   -5.7662   -0.2971    2.4222 H   0  0  0  0  0  0  0  0  0  0  0  0
   -4.6631   -0.5736    3.5956 H   0  0  0  0  0  0  0  0  0  0  0  0
  1  5  1  0
  5  8  1  0
  1  2  1  0
  1  3  1  0
  1  4  1  0
  5  6  1  0
  5  7  1  0
  8  9  1  0
  8 10  1  0
  8 11  1  0
 12 16  1  0
 16 17  1  0
 12 13  1  0
 12 14  1  0
 12 15  1  0
 17 18  1  0
 17 19  1  0
 17 20  1  0
M  CHG  1   8   1
M  END
>  <PDB_ID>  (1852) 
pdb5vol

>  <RESIDUE_NAME>  (1852) 
LYS   MET

>  <FRAG_NAME>  (1852) 
ETAM   MSM

>  <FRAG_ATOM_NUM>  (1852) 
fragi: 11  fragj: 9

>  <atom.prop.CHAIN_ID>  (1852) 
A A A A A A A A A A A Z Z Z Z Z Z Z Z Z

>  <atom.prop.IS_HEAVY_ATOM>  (1852) 
1 0 0 0 1 0 0 1 0 0 0 1 0 0 0 1 1 0 0 0

>  <DIFUSE_FUNC_ATOM>  (1852) 
n/a

>  <FINAL_SINGLE_POINT_ENERGY>  (1852) 
0

>  <NONCOV_INTER_ENERGY_QM>  (1852) 
0

>  <FF_Energy>  (1852) 
-5.29

>  <QM_Energy>  (1852) 
-13.02

>  <source>  (1852) 
ETAM_MSM

>  <Index>  (1852) 
11837

$$$$
ETAM-pdb5vpr-A-LYS-294:MSM-pdb5vpr-A-MET-37
     RDKit          3D

 20 18  0  0  0  0  0  0  0  0999 V2000
    1.2420    0.8684   -0.0000 C   0  0  0  0  0  0  0  0  0  0  0  0
    1.1461    1.5644    0.7020 H   0  0  0  0  0  0  0  0  0  0  0  0
    1.3401    1.2855   -0.8953 H   0  0  0  0  0  0  0  0  0  0  0  0
    2.1319    0.2759    0.2126 H   0  0  0  0  0  0  0  0  0  0  0  0
    0.0000    0.0000    0.0000 C   0  0  0  0  0  0  0  0  0  0  0  0
    0.0118   -0.5857   -0.8168 H   0  0  0  0  0  0  0  0  0  0  0  0
    0.0114   -0.5861    0.8160 H   0  0  0  0  0  0  0  0  0  0  0  0
   -1.2420    0.8125   -0.0000 N   0  0  0  0  0  4  0  0  0  0  0  0
   -1.1948    1.4936    0.7306 H   0  0  0  0  0  0  0  0  0  0  0  0
   -1.3388    1.2751   -0.8818 H   0  0  0  0  0  0  0  0  0  0  0  0
   -2.0310    0.2156    0.1514 H   0  0  0  0  0  0  0  0  0  0  0  0
   -3.4384   -0.1081   -4.3010 C   0  0  0  0  0  0  0  0  0  0  0  0
   -4.1441   -0.5167   -3.7013 H   0  0  0  0  0  0  0  0  0  0  0  0
   -3.3809   -0.6795   -5.1348 H   0  0  0  0  0  0  0  0  0  0  0  0
   -3.7476    0.8994   -4.5793 H   0  0  0  0  0  0  0  0  0  0  0  0
   -1.8290   -0.0637   -3.4493 S   0  0  0  0  0  0  0  0  0  0  0  0
   -0.7059    0.2403   -4.8131 C   0  0  0  0  0  0  0  0  0  0  0  0
    0.2389    0.1446   -4.4971 H   0  0  0  0  0  0  0  0  0  0  0  0
   -0.8798   -0.4205   -5.5446 H   0  0  0  0  0  0  0  0  0  0  0  0
   -0.8471    1.1676   -5.1626 H   0  0  0  0  0  0  0  0  0  0  0  0
  1  5  1  0
  5  8  1  0
  1  2  1  0
  1  3  1  0
  1  4  1  0
  5  6  1  0
  5  7  1  0
  8  9  1  0
  8 10  1  0
  8 11  1  0
 12 16  1  0
 16 17  1  0
 12 13  1  0
 12 14  1  0
 12 15  1  0
 17 18  1  0
 17 19  1  0
 17 20  1  0
M  CHG  1   8   1
M  END
>  <PDB_ID>  (1853) 
pdb5vpr

>  <RESIDUE_NAME>  (1853) 
LYS   MET

>  <FRAG_NAME>  (1853) 
ETAM   MSM

>  <FRAG_ATOM_NUM>  (1853) 
fragi: 11  fragj: 9

>  <atom.prop.CHAIN_ID>  (1853) 
A A A A A A A A A A A Z Z Z Z Z Z Z Z Z

>  <atom.prop.IS_HEAVY_ATOM>  (1853) 
1 0 0 0 1 0 0 1 0 0 0 1 0 0 0 1 1 0 0 0

>  <DIFUSE_FUNC_ATOM>  (1853) 
n/a

>  <FINAL_SINGLE_POINT_ENERGY>  (1853) 
0

>  <NONCOV_INTER_ENERGY_QM>  (1853) 
0

>  <FF_Energy>  (1853) 
-5.49

>  <QM_Energy>  (1853) 
-13.51

>  <source>  (1853) 
ETAM_MSM

>  <Index>  (1853) 
11838

$$$$
ETAM-pdb5vlq-B-LYS-553:MSM-pdb5vlq-B-MET-133
     RDKit          3D

 20 18  0  0  0  0  0  0  0  0999 V2000
    1.2391    0.8766   -0.0000 C   0  0  0  0  0  0  0  0  0  0  0  0
    1.3387    1.2568    0.8868 H   0  0  0  0  0  0  0  0  0  0  0  0
    1.1083    1.5821   -0.6525 H   0  0  0  0  0  0  0  0  0  0  0  0
    2.1415    0.3203   -0.2533 H   0  0  0  0  0  0  0  0  0  0  0  0
    0.0000    0.0000    0.0000 C   0  0  0  0  0  0  0  0  0  0  0  0
   -0.0029   -0.5543   -0.7958 H   0  0  0  0  0  0  0  0  0  0  0  0
   -0.0031   -0.5537    0.7974 H   0  0  0  0  0  0  0  0  0  0  0  0
   -1.2391    0.8294    0.0000 N   0  0  0  0  0  4  0  0  0  0  0  0
   -1.9571    0.3036   -0.0001 H   0  0  0  0  0  0  0  0  0  0  0  0
   -1.2587    1.3469    0.7247 H   0  0  0  0  0  0  0  0  0  0  0  0
   -1.2588    1.3459   -0.7243 H   0  0  0  0  0  0  0  0  0  0  0  0
   -3.8019    0.6559    3.6095 C   0  0  0  0  0  0  0  0  0  0  0  0
   -3.5830   -0.2885    3.6596 H   0  0  0  0  0  0  0  0  0  0  0  0
   -4.4128    0.8141    2.8734 H   0  0  0  0  0  0  0  0  0  0  0  0
   -4.2834    0.9558    4.5403 H   0  0  0  0  0  0  0  0  0  0  0  0
   -2.2840    1.5568    3.2712 S   0  0  0  0  0  0  0  0  0  0  0  0
   -1.2717    1.0456    4.6577 C   0  0  0  0  0  0  0  0  0  0  0  0
   -0.4039    1.4738    4.5904 H   0  0  0  0  0  0  0  0  0  0  0  0
   -1.7091    1.3103    5.4822 H   0  0  0  0  0  0  0  0  0  0  0  0
   -1.1683    0.0815    4.6333 H   0  0  0  0  0  0  0  0  0  0  0  0
  1  5  1  0
  5  8  1  0
  1  2  1  0
  1  3  1  0
  1  4  1  0
  5  6  1  0
  5  7  1  0
  8  9  1  0
  8 10  1  0
  8 11  1  0
 12 16  1  0
 16 17  1  0
 12 13  1  0
 12 14  1  0
 12 15  1  0
 17 18  1  0
 17 19  1  0
 17 20  1  0
M  CHG  1   8   1
M  END
>  <PDB_ID>  (1854) 
pdb5vlq

>  <RESIDUE_NAME>  (1854) 
LYS   MET

>  <FRAG_NAME>  (1854) 
ETAM   MSM

>  <FRAG_ATOM_NUM>  (1854) 
fragi: 11  fragj: 9

>  <atom.prop.CHAIN_ID>  (1854) 
A A A A A A A A A A A Z Z Z Z Z Z Z Z Z

>  <atom.prop.IS_HEAVY_ATOM>  (1854) 
1 0 0 0 1 0 0 1 0 0 0 1 0 0 0 1 1 0 0 0

>  <DIFUSE_FUNC_ATOM>  (1854) 
n/a

>  <FINAL_SINGLE_POINT_ENERGY>  (1854) 
0

>  <NONCOV_INTER_ENERGY_QM>  (1854) 
0

>  <FF_Energy>  (1854) 
-5.08

>  <QM_Energy>  (1854) 
-13.56

>  <source>  (1854) 
ETAM_MSM

>  <Index>  (1854) 
11845

$$$$
ETAM-pdb5w1a-A-LYS-297:MSM-pdb5w1a-A-MET-289
     RDKit          3D

 20 18  0  0  0  0  0  0  0  0999 V2000
    1.2442    0.8696   -0.0000 C   0  0  0  0  0  0  0  0  0  0  0  0
    1.1195    1.5800    0.6489 H   0  0  0  0  0  0  0  0  0  0  0  0
    1.3549    1.2414   -0.8891 H   0  0  0  0  0  0  0  0  0  0  0  0
    2.1315    0.2936    0.2628 H   0  0  0  0  0  0  0  0  0  0  0  0
    0.0000    0.0000    0.0000 C   0  0  0  0  0  0  0  0  0  0  0  0
   -0.0020   -0.5546   -0.7953 H   0  0  0  0  0  0  0  0  0  0  0  0
   -0.0018   -0.5546    0.7956 H   0  0  0  0  0  0  0  0  0  0  0  0
   -1.2442    0.8187    0.0000 N   0  0  0  0  0  4  0  0  0  0  0  0
   -1.9579    0.2874    0.0006 H   0  0  0  0  0  0  0  0  0  0  0  0
   -1.2675    1.3360    0.7246 H   0  0  0  0  0  0  0  0  0  0  0  0
   -1.2675    1.3352   -0.7247 H   0  0  0  0  0  0  0  0  0  0  0  0
   -2.2365   -0.6488    4.3905 C   0  0  0  0  0  0  0  0  0  0  0  0
   -1.5182   -1.0451    4.9097 H   0  0  0  0  0  0  0  0  0  0  0  0
   -3.0889   -0.8000    4.8279 H   0  0  0  0  0  0  0  0  0  0  0  0
   -2.0642    0.4236    4.2985 H   0  0  0  0  0  0  0  0  0  0  0  0
   -2.2793   -1.4568    2.7755 S   0  0  0  0  0  0  0  0  0  0  0  0
   -3.8878   -0.9364    2.1896 C   0  0  0  0  0  0  0  0  0  0  0  0
   -4.0387   -1.3113    1.3083 H   0  0  0  0  0  0  0  0  0  0  0  0
   -4.5657   -1.2542    2.8058 H   0  0  0  0  0  0  0  0  0  0  0  0
   -3.9081    0.0326    2.1449 H   0  0  0  0  0  0  0  0  0  0  0  0
  1  5  1  0
  5  8  1  0
  1  2  1  0
  1  3  1  0
  1  4  1  0
  5  6  1  0
  5  7  1  0
  8  9  1  0
  8 10  1  0
  8 11  1  0
 12 16  1  0
 16 17  1  0
 12 13  1  0
 12 14  1  0
 12 15  1  0
 17 18  1  0
 17 19  1  0
 17 20  1  0
M  CHG  1   8   1
M  END
>  <PDB_ID>  (1855) 
pdb5w1a

>  <RESIDUE_NAME>  (1855) 
LYS   MET

>  <FRAG_NAME>  (1855) 
ETAM   MSM

>  <FRAG_ATOM_NUM>  (1855) 
fragi: 11  fragj: 9

>  <atom.prop.CHAIN_ID>  (1855) 
A A A A A A A A A A A Z Z Z Z Z Z Z Z Z

>  <atom.prop.IS_HEAVY_ATOM>  (1855) 
1 0 0 0 1 0 0 1 0 0 0 1 0 0 0 1 1 0 0 0

>  <DIFUSE_FUNC_ATOM>  (1855) 
n/a

>  <FINAL_SINGLE_POINT_ENERGY>  (1855) 
0

>  <NONCOV_INTER_ENERGY_QM>  (1855) 
0

>  <FF_Energy>  (1855) 
-3.77

>  <QM_Energy>  (1855) 
-9.56

>  <source>  (1855) 
ETAM_MSM

>  <Index>  (1855) 
11863

$$$$
ETAM-pdb5w62-A-LYS-189:MSM-pdb5w62-A-MET-79
     RDKit          3D

 20 18  0  0  0  0  0  0  0  0999 V2000
    1.2323    0.8743   -0.0000 C   0  0  0  0  0  0  0  0  0  0  0  0
    1.2154    1.4526    0.8169 H   0  0  0  0  0  0  0  0  0  0  0  0
    1.2150    1.4532   -0.8165 H   0  0  0  0  0  0  0  0  0  0  0  0
    2.1569    0.2971   -0.0004 H   0  0  0  0  0  0  0  0  0  0  0  0
    0.0000    0.0000    0.0000 C   0  0  0  0  0  0  0  0  0  0  0  0
    0.0075   -0.5783   -0.8163 H   0  0  0  0  0  0  0  0  0  0  0  0
    0.0078   -0.5792    0.8157 H   0  0  0  0  0  0  0  0  0  0  0  0
   -1.2323    0.8282   -0.0000 N   0  0  0  0  0  4  0  0  0  0  0  0
   -1.0023    1.7673    0.2584 H   0  0  0  0  0  0  0  0  0  0  0  0
   -1.6375    0.8240   -0.9140 H   0  0  0  0  0  0  0  0  0  0  0  0
   -1.8862    0.4523    0.6567 H   0  0  0  0  0  0  0  0  0  0  0  0
   -1.9160    3.1773   -2.1724 C   0  0  0  0  0  0  0  0  0  0  0  0
   -1.1445    3.2515   -1.5227 H   0  0  0  0  0  0  0  0  0  0  0  0
   -2.5866    3.8965   -1.9367 H   0  0  0  0  0  0  0  0  0  0  0  0
   -1.5542    3.3314   -3.1889 H   0  0  0  0  0  0  0  0  0  0  0  0
   -2.6726    1.5517   -2.0700 S   0  0  0  0  0  0  0  0  0  0  0  0
   -4.0799    1.7969   -3.1509 C   0  0  0  0  0  0  0  0  0  0  0  0
   -3.8027    2.3401   -3.9444 H   0  0  0  0  0  0  0  0  0  0  0  0
   -4.4238    0.9096   -3.4598 H   0  0  0  0  0  0  0  0  0  0  0  0
   -4.8041    2.2789   -2.6549 H   0  0  0  0  0  0  0  0  0  0  0  0
  1  5  1  0
  5  8  1  0
  1  2  1  0
  1  3  1  0
  1  4  1  0
  5  6  1  0
  5  7  1  0
  8  9  1  0
  8 10  1  0
  8 11  1  0
 12 16  1  0
 16 17  1  0
 12 13  1  0
 12 14  1  0
 12 15  1  0
 17 18  1  0
 17 19  1  0
 17 20  1  0
M  CHG  1   8   1
M  END
>  <PDB_ID>  (1856) 
pdb5w62

>  <RESIDUE_NAME>  (1856) 
LYS   MET

>  <FRAG_NAME>  (1856) 
ETAM   MSM

>  <FRAG_ATOM_NUM>  (1856) 
fragi: 11  fragj: 9

>  <atom.prop.CHAIN_ID>  (1856) 
A A A A A A A A A A A Z Z Z Z Z Z Z Z Z

>  <atom.prop.IS_HEAVY_ATOM>  (1856) 
1 0 0 0 1 0 0 1 0 0 0 1 0 0 0 1 1 0 0 0

>  <DIFUSE_FUNC_ATOM>  (1856) 
n/a

>  <FINAL_SINGLE_POINT_ENERGY>  (1856) 
0

>  <NONCOV_INTER_ENERGY_QM>  (1856) 
0

>  <FF_Energy>  (1856) 
17.64

>  <QM_Energy>  (1856) 
-0.08

>  <source>  (1856) 
ETAM_MSM

>  <Index>  (1856) 
11869

$$$$
ETAM-pdb5wce-A-LYS-228:MSM-pdb5wce-A-MET-120
     RDKit          3D

 20 18  0  0  0  0  0  0  0  0999 V2000
    1.1980    0.9436    0.0000 C   0  0  0  0  0  0  0  0  0  0  0  0
    0.9095    1.8042   -0.4086 H   0  0  0  0  0  0  0  0  0  0  0  0
    1.9159    0.5259   -0.5471 H   0  0  0  0  0  0  0  0  0  0  0  0
    1.5530    1.1131    1.0166 H   0  0  0  0  0  0  0  0  0  0  0  0
    0.0000    0.0000    0.0000 C   0  0  0  0  0  0  0  0  0  0  0  0
    0.0493   -0.5649   -0.8168 H   0  0  0  0  0  0  0  0  0  0  0  0
    0.0488   -0.5650    0.8168 H   0  0  0  0  0  0  0  0  0  0  0  0
   -1.1980    0.7969   -0.0000 N   0  0  0  0  0  4  0  0  0  0  0  0
   -1.3194    1.2584    0.8881 H   0  0  0  0  0  0  0  0  0  0  0  0
   -1.1569    1.5020   -0.7187 H   0  0  0  0  0  0  0  0  0  0  0  0
   -2.0081    0.2219   -0.1694 H   0  0  0  0  0  0  0  0  0  0  0  0
    0.3537   -1.7838   -4.1124 C   0  0  0  0  0  0  0  0  0  0  0  0
    1.2681   -2.0759   -4.4700 H   0  0  0  0  0  0  0  0  0  0  0  0
    0.3689   -0.7590   -4.1208 H   0  0  0  0  0  0  0  0  0  0  0  0
   -0.4079   -2.1177   -4.8171 H   0  0  0  0  0  0  0  0  0  0  0  0
    0.0728   -2.4134   -2.4628 S   0  0  0  0  0  0  0  0  0  0  0  0
    0.4594   -4.1295   -2.6094 C   0  0  0  0  0  0  0  0  0  0  0  0
    1.2155   -4.3705   -1.9916 H   0  0  0  0  0  0  0  0  0  0  0  0
   -0.3414   -4.6889   -2.3705 H   0  0  0  0  0  0  0  0  0  0  0  0
    0.7335   -4.3466   -3.5519 H   0  0  0  0  0  0  0  0  0  0  0  0
  1  5  1  0
  5  8  1  0
  1  2  1  0
  1  3  1  0
  1  4  1  0
  5  6  1  0
  5  7  1  0
  8  9  1  0
  8 10  1  0
  8 11  1  0
 12 16  1  0
 16 17  1  0
 12 13  1  0
 12 14  1  0
 12 15  1  0
 17 18  1  0
 17 19  1  0
 17 20  1  0
M  CHG  1   8   1
M  END
>  <PDB_ID>  (1857) 
pdb5wce

>  <RESIDUE_NAME>  (1857) 
LYS   MET

>  <FRAG_NAME>  (1857) 
ETAM   MSM

>  <FRAG_ATOM_NUM>  (1857) 
fragi: 11  fragj: 9

>  <atom.prop.CHAIN_ID>  (1857) 
A A A A A A A A A A A Z Z Z Z Z Z Z Z Z

>  <atom.prop.IS_HEAVY_ATOM>  (1857) 
1 0 0 0 1 0 0 1 0 0 0 1 0 0 0 1 1 0 0 0

>  <DIFUSE_FUNC_ATOM>  (1857) 
n/a

>  <FINAL_SINGLE_POINT_ENERGY>  (1857) 
0

>  <NONCOV_INTER_ENERGY_QM>  (1857) 
0

>  <FF_Energy>  (1857) 
-1.34

>  <QM_Energy>  (1857) 
-8.36

>  <source>  (1857) 
ETAM_MSM

>  <Index>  (1857) 
11878

$$$$
ETAM-pdb5wce-B-LYS-228:MSM-pdb5wce-B-MET-120
     RDKit          3D

 20 18  0  0  0  0  0  0  0  0999 V2000
    1.2761    0.8461   -0.0000 C   0  0  0  0  0  0  0  0  0  0  0  0
    1.1913    1.5370   -0.7067 H   0  0  0  0  0  0  0  0  0  0  0  0
    2.0458    0.2473   -0.1836 H   0  0  0  0  0  0  0  0  0  0  0  0
    1.4211    1.3340    0.9638 H   0  0  0  0  0  0  0  0  0  0  0  0
    0.0000    0.0000    0.0000 C   0  0  0  0  0  0  0  0  0  0  0  0
    0.0136   -0.6024   -0.8159 H   0  0  0  0  0  0  0  0  0  0  0  0
    0.0124   -0.6029    0.8159 H   0  0  0  0  0  0  0  0  0  0  0  0
   -1.2761    0.7843    0.0000 N   0  0  0  0  0  4  0  0  0  0  0  0
   -1.0812    1.7259    0.2660 H   0  0  0  0  0  0  0  0  0  0  0  0
   -1.6709    0.7661   -0.9167 H   0  0  0  0  0  0  0  0  0  0  0  0
   -1.9123    0.3738    0.6504 H   0  0  0  0  0  0  0  0  0  0  0  0
   -0.4313    2.2755   -4.5944 C   0  0  0  0  0  0  0  0  0  0  0  0
    0.4263    2.5458   -5.1030 H   0  0  0  0  0  0  0  0  0  0  0  0
   -0.5672    3.0294   -3.9017 H   0  0  0  0  0  0  0  0  0  0  0  0
   -1.2677    2.2913   -5.2931 H   0  0  0  0  0  0  0  0  0  0  0  0
   -0.2065    0.6942   -3.7712 S   0  0  0  0  0  0  0  0  0  0  0  0
    0.3978   -0.3420   -5.0654 C   0  0  0  0  0  0  0  0  0  0  0  0
    0.3338    0.1316   -5.9508 H   0  0  0  0  0  0  0  0  0  0  0  0
    1.3597   -0.5838   -4.8984 H   0  0  0  0  0  0  0  0  0  0  0  0
   -0.1421   -1.1884   -5.1150 H   0  0  0  0  0  0  0  0  0  0  0  0
  1  5  1  0
  5  8  1  0
  1  2  1  0
  1  3  1  0
  1  4  1  0
  5  6  1  0
  5  7  1  0
  8  9  1  0
  8 10  1  0
  8 11  1  0
 12 16  1  0
 16 17  1  0
 12 13  1  0
 12 14  1  0
 12 15  1  0
 17 18  1  0
 17 19  1  0
 17 20  1  0
M  CHG  1   8   1
M  END
>  <PDB_ID>  (1858) 
pdb5wce

>  <RESIDUE_NAME>  (1858) 
LYS   MET

>  <FRAG_NAME>  (1858) 
ETAM   MSM

>  <FRAG_ATOM_NUM>  (1858) 
fragi: 11  fragj: 9

>  <atom.prop.CHAIN_ID>  (1858) 
A A A A A A A A A A A Z Z Z Z Z Z Z Z Z

>  <atom.prop.IS_HEAVY_ATOM>  (1858) 
1 0 0 0 1 0 0 1 0 0 0 1 0 0 0 1 1 0 0 0

>  <DIFUSE_FUNC_ATOM>  (1858) 
n/a

>  <FINAL_SINGLE_POINT_ENERGY>  (1858) 
0

>  <NONCOV_INTER_ENERGY_QM>  (1858) 
0

>  <FF_Energy>  (1858) 
-5.22

>  <QM_Energy>  (1858) 
-11.45

>  <source>  (1858) 
ETAM_MSM

>  <Index>  (1858) 
11879

$$$$
ETAM-pdb5wdr-B-LYS-117:MSM-pdb5wdr-A-MET-67
     RDKit          3D

 20 18  0  0  0  0  0  0  0  0999 V2000
    1.2528    0.8695    0.0000 C   0  0  0  0  0  0  0  0  0  0  0  0
    1.1548    1.5440    0.6906 H   0  0  0  0  0  0  0  0  0  0  0  0
    1.3306    1.2903   -0.8710 H   0  0  0  0  0  0  0  0  0  0  0  0
    2.1483    0.2801    0.1966 H   0  0  0  0  0  0  0  0  0  0  0  0
    0.0000    0.0000    0.0000 C   0  0  0  0  0  0  0  0  0  0  0  0
    0.0036   -0.5570   -0.7932 H   0  0  0  0  0  0  0  0  0  0  0  0
    0.0034   -0.5562    0.7958 H   0  0  0  0  0  0  0  0  0  0  0  0
   -1.2528    0.7858    0.0000 N   0  0  0  0  0  4  0  0  0  0  0  0
   -1.2873    1.3013   -0.7244 H   0  0  0  0  0  0  0  0  0  0  0  0
   -1.9547    0.2391    0.0010 H   0  0  0  0  0  0  0  0  0  0  0  0
   -1.2875    1.3020    0.7241 H   0  0  0  0  0  0  0  0  0  0  0  0
   -5.7736    1.4886   -2.1100 C   0  0  0  0  0  0  0  0  0  0  0  0
   -6.1452    0.6465   -1.8050 H   0  0  0  0  0  0  0  0  0  0  0  0
   -5.3410    1.3572   -2.9690 H   0  0  0  0  0  0  0  0  0  0  0  0
   -6.5911    2.1975   -2.2418 H   0  0  0  0  0  0  0  0  0  0  0  0
   -4.4969    1.9711   -0.9341 S   0  0  0  0  0  0  0  0  0  0  0  0
   -5.4201    1.6959    0.5631 C   0  0  0  0  0  0  0  0  0  0  0  0
   -4.8601    1.9152    1.3244 H   0  0  0  0  0  0  0  0  0  0  0  0
   -6.2074    2.2624    0.5569 H   0  0  0  0  0  0  0  0  0  0  0  0
   -5.6840    0.7631    0.6038 H   0  0  0  0  0  0  0  0  0  0  0  0
  1  5  1  0
  5  8  1  0
  1  2  1  0
  1  3  1  0
  1  4  1  0
  5  6  1  0
  5  7  1  0
  8  9  1  0
  8 10  1  0
  8 11  1  0
 12 16  1  0
 16 17  1  0
 12 13  1  0
 12 14  1  0
 12 15  1  0
 17 18  1  0
 17 19  1  0
 17 20  1  0
M  CHG  1   8   1
M  END
>  <PDB_ID>  (1859) 
pdb5wdr

>  <RESIDUE_NAME>  (1859) 
LYS   MET

>  <FRAG_NAME>  (1859) 
ETAM   MSM

>  <FRAG_ATOM_NUM>  (1859) 
fragi: 11  fragj: 9

>  <atom.prop.CHAIN_ID>  (1859) 
A A A A A A A A A A A Z Z Z Z Z Z Z Z Z

>  <atom.prop.IS_HEAVY_ATOM>  (1859) 
1 0 0 0 1 0 0 1 0 0 0 1 0 0 0 1 1 0 0 0

>  <DIFUSE_FUNC_ATOM>  (1859) 
n/a

>  <FINAL_SINGLE_POINT_ENERGY>  (1859) 
0

>  <NONCOV_INTER_ENERGY_QM>  (1859) 
0

>  <FF_Energy>  (1859) 
-4.5

>  <QM_Energy>  (1859) 
-11.15

>  <source>  (1859) 
ETAM_MSM

>  <Index>  (1859) 
11881

$$$$
ETAM-pdb5wc6-A-LYS-199:MSM-pdb5wc6-A-MET-163
     RDKit          3D

 20 18  0  0  0  0  0  0  0  0999 V2000
    1.2729    0.8526    0.0000 C   0  0  0  0  0  0  0  0  0  0  0  0
    2.0210    0.2963   -0.3719 H   0  0  0  0  0  0  0  0  0  0  0  0
    1.4866    1.0923    0.9502 H   0  0  0  0  0  0  0  0  0  0  0  0
    1.1895    1.7682   -0.5856 H   0  0  0  0  0  0  0  0  0  0  0  0
    0.0000    0.0000    0.0000 C   0  0  0  0  0  0  0  0  0  0  0  0
    0.0401   -0.6205   -0.8162 H   0  0  0  0  0  0  0  0  0  0  0  0
    0.0404   -0.6207    0.8164 H   0  0  0  0  0  0  0  0  0  0  0  0
   -1.2729    0.7221   -0.0000 N   0  0  0  0  0  4  0  0  0  0  0  0
   -1.8542    0.3954    0.7507 H   0  0  0  0  0  0  0  0  0  0  0  0
   -1.1110    1.7058    0.1189 H   0  0  0  0  0  0  0  0  0  0  0  0
   -1.7520    0.5744   -0.8702 H   0  0  0  0  0  0  0  0  0  0  0  0
   -4.5839    0.8732   -1.1796 C   0  0  0  0  0  0  0  0  0  0  0  0
   -4.2819   -0.1061   -1.0109 H   0  0  0  0  0  0  0  0  0  0  0  0
   -3.9427    1.2003   -1.9282 H   0  0  0  0  0  0  0  0  0  0  0  0
   -5.5983    0.8557   -1.5780 H   0  0  0  0  0  0  0  0  0  0  0  0
   -4.3515    1.8678    0.3217 S   0  0  0  0  0  0  0  0  0  0  0  0
   -5.5050    1.2590    1.5225 C   0  0  0  0  0  0  0  0  0  0  0  0
   -6.3142    1.8529    1.5560 H   0  0  0  0  0  0  0  0  0  0  0  0
   -5.7957    0.3292    1.2812 H   0  0  0  0  0  0  0  0  0  0  0  0
   -5.0787    1.2402    2.4309 H   0  0  0  0  0  0  0  0  0  0  0  0
  1  5  1  0
  5  8  1  0
  1  2  1  0
  1  3  1  0
  1  4  1  0
  5  6  1  0
  5  7  1  0
  8  9  1  0
  8 10  1  0
  8 11  1  0
 12 16  1  0
 16 17  1  0
 12 13  1  0
 12 14  1  0
 12 15  1  0
 17 18  1  0
 17 19  1  0
 17 20  1  0
M  CHG  1   8   1
M  END
>  <PDB_ID>  (1860) 
pdb5wc6

>  <RESIDUE_NAME>  (1860) 
LYS   MET

>  <FRAG_NAME>  (1860) 
ETAM   MSM

>  <FRAG_ATOM_NUM>  (1860) 
fragi: 11  fragj: 9

>  <atom.prop.CHAIN_ID>  (1860) 
A A A A A A A A A A A Z Z Z Z Z Z Z Z Z

>  <atom.prop.IS_HEAVY_ATOM>  (1860) 
1 0 0 0 1 0 0 1 0 0 0 1 0 0 0 1 1 0 0 0

>  <DIFUSE_FUNC_ATOM>  (1860) 
n/a

>  <FINAL_SINGLE_POINT_ENERGY>  (1860) 
0

>  <NONCOV_INTER_ENERGY_QM>  (1860) 
0

>  <FF_Energy>  (1860) 
-3.78

>  <QM_Energy>  (1860) 
-11.48

>  <source>  (1860) 
ETAM_MSM

>  <Index>  (1860) 
11884

$$$$
ETAM-pdb5weg-A-LYS-106:MSM-pdb5weg-A-MET-100
     RDKit          3D

 20 18  0  0  0  0  0  0  0  0999 V2000
    1.2545    0.8796   -0.0000 C   0  0  0  0  0  0  0  0  0  0  0  0
    2.0272    0.3130    0.2806 H   0  0  0  0  0  0  0  0  0  0  0  0
    1.1158    1.6125    0.6635 H   0  0  0  0  0  0  0  0  0  0  0  0
    1.4560    1.3092   -0.9813 H   0  0  0  0  0  0  0  0  0  0  0  0
    0.0000    0.0000    0.0000 C   0  0  0  0  0  0  0  0  0  0  0  0
    0.0181   -0.5836   -0.8163 H   0  0  0  0  0  0  0  0  0  0  0  0
    0.0181   -0.5847    0.8166 H   0  0  0  0  0  0  0  0  0  0  0  0
   -1.2545    0.8055   -0.0000 N   0  0  0  0  0  4  0  0  0  0  0  0
   -1.1906    1.5165   -0.6998 H   0  0  0  0  0  0  0  0  0  0  0  0
   -2.0304    0.2079   -0.1980 H   0  0  0  0  0  0  0  0  0  0  0  0
   -1.3760    1.2281    0.8978 H   0  0  0  0  0  0  0  0  0  0  0  0
   -0.2742   -1.1900    4.6560 C   0  0  0  0  0  0  0  0  0  0  0  0
   -0.8681   -1.5504    5.4223 H   0  0  0  0  0  0  0  0  0  0  0  0
   -0.4329   -0.1686    4.6689 H   0  0  0  0  0  0  0  0  0  0  0  0
    0.7658   -1.3698    4.9283 H   0  0  0  0  0  0  0  0  0  0  0  0
   -0.7526   -1.8958    3.0846 S   0  0  0  0  0  0  0  0  0  0  0  0
   -0.2609   -3.6102    3.2962 C   0  0  0  0  0  0  0  0  0  0  0  0
    0.3801   -3.6810    4.0609 H   0  0  0  0  0  0  0  0  0  0  0  0
   -1.0689   -4.1680    3.4867 H   0  0  0  0  0  0  0  0  0  0  0  0
    0.1801   -3.9363    2.4594 H   0  0  0  0  0  0  0  0  0  0  0  0
  1  5  1  0
  5  8  1  0
  1  2  1  0
  1  3  1  0
  1  4  1  0
  5  6  1  0
  5  7  1  0
  8  9  1  0
  8 10  1  0
  8 11  1  0
 12 16  1  0
 16 17  1  0
 12 13  1  0
 12 14  1  0
 12 15  1  0
 17 18  1  0
 17 19  1  0
 17 20  1  0
M  CHG  1   8   1
M  END
>  <PDB_ID>  (1861) 
pdb5weg

>  <RESIDUE_NAME>  (1861) 
LYS   MET

>  <FRAG_NAME>  (1861) 
ETAM   MSM

>  <FRAG_ATOM_NUM>  (1861) 
fragi: 11  fragj: 9

>  <atom.prop.CHAIN_ID>  (1861) 
A A A A A A A A A A A Z Z Z Z Z Z Z Z Z

>  <atom.prop.IS_HEAVY_ATOM>  (1861) 
1 0 0 0 1 0 0 1 0 0 0 1 0 0 0 1 1 0 0 0

>  <DIFUSE_FUNC_ATOM>  (1861) 
n/a

>  <FINAL_SINGLE_POINT_ENERGY>  (1861) 
0

>  <NONCOV_INTER_ENERGY_QM>  (1861) 
0

>  <FF_Energy>  (1861) 
-3.99

>  <QM_Energy>  (1861) 
-9.52

>  <source>  (1861) 
ETAM_MSM

>  <Index>  (1861) 
11886

$$$$
ETAM-pdb5weg-B-LYS-106:MSM-pdb5weg-B-MET-100
     RDKit          3D

 20 18  0  0  0  0  0  0  0  0999 V2000
    1.2611    0.8684   -0.0000 C   0  0  0  0  0  0  0  0  0  0  0  0
    2.0343    0.2911    0.2643 H   0  0  0  0  0  0  0  0  0  0  0  0
    1.1391    1.5920    0.6804 H   0  0  0  0  0  0  0  0  0  0  0  0
    1.4652    1.3190   -0.9713 H   0  0  0  0  0  0  0  0  0  0  0  0
    0.0000    0.0000    0.0000 C   0  0  0  0  0  0  0  0  0  0  0  0
    0.0174   -0.5908   -0.8159 H   0  0  0  0  0  0  0  0  0  0  0  0
    0.0168   -0.5914    0.8163 H   0  0  0  0  0  0  0  0  0  0  0  0
   -1.2611    0.7967    0.0000 N   0  0  0  0  0  4  0  0  0  0  0  0
   -1.8332    0.5084    0.7663 H   0  0  0  0  0  0  0  0  0  0  0  0
   -1.0391    1.7660    0.0926 H   0  0  0  0  0  0  0  0  0  0  0  0
   -1.7474    0.6438   -0.8588 H   0  0  0  0  0  0  0  0  0  0  0  0
   -0.2376   -1.6938    4.5135 C   0  0  0  0  0  0  0  0  0  0  0  0
   -0.8122   -2.1201    5.2634 H   0  0  0  0  0  0  0  0  0  0  0  0
   -0.3946   -0.6756    4.6281 H   0  0  0  0  0  0  0  0  0  0  0  0
    0.8097   -1.9004    4.7342 H   0  0  0  0  0  0  0  0  0  0  0  0
   -0.7834   -2.2451    2.8993 S   0  0  0  0  0  0  0  0  0  0  0  0
   -0.2734   -3.9655    2.9200 C   0  0  0  0  0  0  0  0  0  0  0  0
    0.4102   -4.1030    3.6375 H   0  0  0  0  0  0  0  0  0  0  0  0
   -1.0673   -4.5466    3.1008 H   0  0  0  0  0  0  0  0  0  0  0  0
    0.1216   -4.2075    2.0329 H   0  0  0  0  0  0  0  0  0  0  0  0
  1  5  1  0
  5  8  1  0
  1  2  1  0
  1  3  1  0
  1  4  1  0
  5  6  1  0
  5  7  1  0
  8  9  1  0
  8 10  1  0
  8 11  1  0
 12 16  1  0
 16 17  1  0
 12 13  1  0
 12 14  1  0
 12 15  1  0
 17 18  1  0
 17 19  1  0
 17 20  1  0
M  CHG  1   8   1
M  END
>  <PDB_ID>  (1862) 
pdb5weg

>  <RESIDUE_NAME>  (1862) 
LYS   MET

>  <FRAG_NAME>  (1862) 
ETAM   MSM

>  <FRAG_ATOM_NUM>  (1862) 
fragi: 11  fragj: 9

>  <atom.prop.CHAIN_ID>  (1862) 
A A A A A A A A A A A Z Z Z Z Z Z Z Z Z

>  <atom.prop.IS_HEAVY_ATOM>  (1862) 
1 0 0 0 1 0 0 1 0 0 0 1 0 0 0 1 1 0 0 0

>  <DIFUSE_FUNC_ATOM>  (1862) 
n/a

>  <FINAL_SINGLE_POINT_ENERGY>  (1862) 
0

>  <NONCOV_INTER_ENERGY_QM>  (1862) 
0

>  <FF_Energy>  (1862) 
-4.06

>  <QM_Energy>  (1862) 
-9.64

>  <source>  (1862) 
ETAM_MSM

>  <Index>  (1862) 
11887

$$$$
ETAM-pdb5we0-G-LYS-4:MSM-pdb5we0-G-MET-47
     RDKit          3D

 20 18  0  0  0  0  0  0  0  0999 V2000
    1.2287    0.8819   -0.0000 C   0  0  0  0  0  0  0  0  0  0  0  0
    2.0337    0.3083   -0.0501 H   0  0  0  0  0  0  0  0  0  0  0  0
    1.2293    1.4278    0.8256 H   0  0  0  0  0  0  0  0  0  0  0  0
    1.2102    1.5443   -0.8654 H   0  0  0  0  0  0  0  0  0  0  0  0
    0.0000    0.0000    0.0000 C   0  0  0  0  0  0  0  0  0  0  0  0
    0.0083   -0.5735   -0.8159 H   0  0  0  0  0  0  0  0  0  0  0  0
    0.0072   -0.5734    0.8160 H   0  0  0  0  0  0  0  0  0  0  0  0
   -1.2287    0.8354   -0.0000 N   0  0  0  0  0  4  0  0  0  0  0  0
   -1.2292    1.4267   -0.8059 H   0  0  0  0  0  0  0  0  0  0  0  0
   -2.0342    0.2428   -0.0199 H   0  0  0  0  0  0  0  0  0  0  0  0
   -1.2492    1.3977    0.8264 H   0  0  0  0  0  0  0  0  0  0  0  0
   -4.8711    3.2840   -0.5124 C   0  0  0  0  0  0  0  0  0  0  0  0
   -4.7836    2.6030   -1.2625 H   0  0  0  0  0  0  0  0  0  0  0  0
   -5.3003    4.1120   -0.9169 H   0  0  0  0  0  0  0  0  0  0  0  0
   -5.5403    2.8802    0.2474 H   0  0  0  0  0  0  0  0  0  0  0  0
   -3.2399    3.6841    0.1839 S   0  0  0  0  0  0  0  0  0  0  0  0
   -3.5673    5.2848    0.9214 C   0  0  0  0  0  0  0  0  0  0  0  0
   -4.3186    5.2038    1.5774 H   0  0  0  0  0  0  0  0  0  0  0  0
   -2.7469    5.6102    1.3933 H   0  0  0  0  0  0  0  0  0  0  0  0
   -3.8202    5.9381    0.2062 H   0  0  0  0  0  0  0  0  0  0  0  0
  1  5  1  0
  5  8  1  0
  1  2  1  0
  1  3  1  0
  1  4  1  0
  5  6  1  0
  5  7  1  0
  8  9  1  0
  8 10  1  0
  8 11  1  0
 12 16  1  0
 16 17  1  0
 12 13  1  0
 12 14  1  0
 12 15  1  0
 17 18  1  0
 17 19  1  0
 17 20  1  0
M  CHG  1   8   1
M  END
>  <PDB_ID>  (1863) 
pdb5we0

>  <RESIDUE_NAME>  (1863) 
LYS   MET

>  <FRAG_NAME>  (1863) 
ETAM   MSM

>  <FRAG_ATOM_NUM>  (1863) 
fragi: 11  fragj: 9

>  <atom.prop.CHAIN_ID>  (1863) 
A A A A A A A A A A A Z Z Z Z Z Z Z Z Z

>  <atom.prop.IS_HEAVY_ATOM>  (1863) 
1 0 0 0 1 0 0 1 0 0 0 1 0 0 0 1 1 0 0 0

>  <DIFUSE_FUNC_ATOM>  (1863) 
n/a

>  <FINAL_SINGLE_POINT_ENERGY>  (1863) 
0

>  <NONCOV_INTER_ENERGY_QM>  (1863) 
0

>  <FF_Energy>  (1863) 
-5.07

>  <QM_Energy>  (1863) 
-11.85

>  <source>  (1863) 
ETAM_MSM

>  <Index>  (1863) 
11903

$$$$
ETAM-pdb5vit-T-LYS-170:MSM-pdb5vit-T-MET-164
     RDKit          3D

 20 18  0  0  0  0  0  0  0  0999 V2000
    1.2580    0.8633    0.0000 C   0  0  0  0  0  0  0  0  0  0  0  0
    1.1989    1.5072    0.7558 H   0  0  0  0  0  0  0  0  0  0  0  0
    1.3072    1.3497   -0.8658 H   0  0  0  0  0  0  0  0  0  0  0  0
    2.1586    0.2609    0.1193 H   0  0  0  0  0  0  0  0  0  0  0  0
    0.0000    0.0000    0.0000 C   0  0  0  0  0  0  0  0  0  0  0  0
    0.0106   -0.5888   -0.8163 H   0  0  0  0  0  0  0  0  0  0  0  0
    0.0101   -0.5881    0.8164 H   0  0  0  0  0  0  0  0  0  0  0  0
   -1.2580    0.8093    0.0000 N   0  0  0  0  0  4  0  0  0  0  0  0
   -1.0406    1.7532   -0.2400 H   0  0  0  0  0  0  0  0  0  0  0  0
   -1.8933    0.4282   -0.6698 H   0  0  0  0  0  0  0  0  0  0  0  0
   -1.6676    0.7777    0.9094 H   0  0  0  0  0  0  0  0  0  0  0  0
   -2.7705   -2.9310    3.0794 C   0  0  0  0  0  0  0  0  0  0  0  0
   -2.8926   -3.3390    2.1428 H   0  0  0  0  0  0  0  0  0  0  0  0
   -3.7263   -2.8128    3.4440 H   0  0  0  0  0  0  0  0  0  0  0  0
   -2.2598   -3.6647    3.7029 H   0  0  0  0  0  0  0  0  0  0  0  0
   -1.9193   -1.3435    2.9821 S   0  0  0  0  0  0  0  0  0  0  0  0
   -2.3046   -0.7045    4.6161 C   0  0  0  0  0  0  0  0  0  0  0  0
   -2.9460    0.0584    4.5329 H   0  0  0  0  0  0  0  0  0  0  0  0
   -2.7173   -1.4297    5.1682 H   0  0  0  0  0  0  0  0  0  0  0  0
   -1.4642   -0.3876    5.0560 H   0  0  0  0  0  0  0  0  0  0  0  0
  1  5  1  0
  5  8  1  0
  1  2  1  0
  1  3  1  0
  1  4  1  0
  5  6  1  0
  5  7  1  0
  8  9  1  0
  8 10  1  0
  8 11  1  0
 12 16  1  0
 16 17  1  0
 12 13  1  0
 12 14  1  0
 12 15  1  0
 17 18  1  0
 17 19  1  0
 17 20  1  0
M  CHG  1   8   1
M  END
>  <PDB_ID>  (1864) 
pdb5vit

>  <RESIDUE_NAME>  (1864) 
LYS   MET

>  <FRAG_NAME>  (1864) 
ETAM   MSM

>  <FRAG_ATOM_NUM>  (1864) 
fragi: 11  fragj: 9

>  <atom.prop.CHAIN_ID>  (1864) 
A A A A A A A A A A A Z Z Z Z Z Z Z Z Z

>  <atom.prop.IS_HEAVY_ATOM>  (1864) 
1 0 0 0 1 0 0 1 0 0 0 1 0 0 0 1 1 0 0 0

>  <DIFUSE_FUNC_ATOM>  (1864) 
n/a

>  <FINAL_SINGLE_POINT_ENERGY>  (1864) 
0

>  <NONCOV_INTER_ENERGY_QM>  (1864) 
0

>  <FF_Energy>  (1864) 
-5.25

>  <QM_Energy>  (1864) 
-12.59

>  <source>  (1864) 
ETAM_MSM

>  <Index>  (1864) 
11905

$$$$
ETAM-pdb5wtl-C-LYS-395:MSM-pdb5wtl-C-MET-399
     RDKit          3D

 20 18  0  0  0  0  0  0  0  0999 V2000
    1.2395    0.8791    0.0000 C   0  0  0  0  0  0  0  0  0  0  0  0
    1.2116    1.4690   -0.8027 H   0  0  0  0  0  0  0  0  0  0  0  0
    2.0450    0.2931   -0.0352 H   0  0  0  0  0  0  0  0  0  0  0  0
    1.2974    1.5032    0.8918 H   0  0  0  0  0  0  0  0  0  0  0  0
    0.0000    0.0000    0.0000 C   0  0  0  0  0  0  0  0  0  0  0  0
    0.0198   -0.5861   -0.8163 H   0  0  0  0  0  0  0  0  0  0  0  0
    0.0201   -0.5857    0.8167 H   0  0  0  0  0  0  0  0  0  0  0  0
   -1.2395    0.8016   -0.0000 N   0  0  0  0  0  4  0  0  0  0  0  0
   -1.9162    0.3775   -0.6050 H   0  0  0  0  0  0  0  0  0  0  0  0
   -1.6114    0.8488    0.9290 H   0  0  0  0  0  0  0  0  0  0  0  0
   -1.0425    1.7284   -0.3241 H   0  0  0  0  0  0  0  0  0  0  0  0
   -0.9770    0.8218    4.8169 C   0  0  0  0  0  0  0  0  0  0  0  0
   -0.1311    1.3902    4.6336 H   0  0  0  0  0  0  0  0  0  0  0  0
   -0.6738   -0.1500    4.6273 H   0  0  0  0  0  0  0  0  0  0  0  0
   -1.2172    0.9025    5.8770 H   0  0  0  0  0  0  0  0  0  0  0  0
   -2.3151    1.2983    3.7028 S   0  0  0  0  0  0  0  0  0  0  0  0
   -3.6092    0.1693    4.2377 C   0  0  0  0  0  0  0  0  0  0  0  0
   -3.2672   -0.3955    4.9890 H   0  0  0  0  0  0  0  0  0  0  0  0
   -4.4013    0.6950    4.5481 H   0  0  0  0  0  0  0  0  0  0  0  0
   -3.8753   -0.4165    3.4721 H   0  0  0  0  0  0  0  0  0  0  0  0
  1  5  1  0
  5  8  1  0
  1  2  1  0
  1  3  1  0
  1  4  1  0
  5  6  1  0
  5  7  1  0
  8  9  1  0
  8 10  1  0
  8 11  1  0
 12 16  1  0
 16 17  1  0
 12 13  1  0
 12 14  1  0
 12 15  1  0
 17 18  1  0
 17 19  1  0
 17 20  1  0
M  CHG  1   8   1
M  END
>  <PDB_ID>  (1865) 
pdb5wtl

>  <RESIDUE_NAME>  (1865) 
LYS   MET

>  <FRAG_NAME>  (1865) 
ETAM   MSM

>  <FRAG_ATOM_NUM>  (1865) 
fragi: 11  fragj: 9

>  <atom.prop.CHAIN_ID>  (1865) 
A A A A A A A A A A A Z Z Z Z Z Z Z Z Z

>  <atom.prop.IS_HEAVY_ATOM>  (1865) 
1 0 0 0 1 0 0 1 0 0 0 1 0 0 0 1 1 0 0 0

>  <DIFUSE_FUNC_ATOM>  (1865) 
n/a

>  <FINAL_SINGLE_POINT_ENERGY>  (1865) 
0

>  <NONCOV_INTER_ENERGY_QM>  (1865) 
0

>  <FF_Energy>  (1865) 
-4.45

>  <QM_Energy>  (1865) 
-12.67

>  <source>  (1865) 
ETAM_MSM

>  <Index>  (1865) 
11922

$$$$
ETAM-pdb5wu7-A-LYS-84:MSM-pdb5wu7-A-MET-81
     RDKit          3D

 20 18  0  0  0  0  0  0  0  0999 V2000
    1.2353    0.8746   -0.0000 C   0  0  0  0  0  0  0  0  0  0  0  0
    1.0301    1.7169    0.4890 H   0  0  0  0  0  0  0  0  0  0  0  0
    1.4840    1.0742   -0.9431 H   0  0  0  0  0  0  0  0  0  0  0  0
    2.0715    0.3760    0.4901 H   0  0  0  0  0  0  0  0  0  0  0  0
    0.0000    0.0000    0.0000 C   0  0  0  0  0  0  0  0  0  0  0  0
    0.0114   -0.5809   -0.8164 H   0  0  0  0  0  0  0  0  0  0  0  0
    0.0107   -0.5811    0.8159 H   0  0  0  0  0  0  0  0  0  0  0  0
   -1.2353    0.8199   -0.0000 N   0  0  0  0  0  4  0  0  0  0  0  0
   -2.0343    0.2201   -0.0600 H   0  0  0  0  0  0  0  0  0  0  0  0
   -1.2823    1.3530    0.8449 H   0  0  0  0  0  0  0  0  0  0  0  0
   -1.2246    1.4406   -0.7849 H   0  0  0  0  0  0  0  0  0  0  0  0
   -1.5488    4.8832    3.4708 C   0  0  0  0  0  0  0  0  0  0  0  0
   -2.2363    4.4847    4.1204 H   0  0  0  0  0  0  0  0  0  0  0  0
   -1.7956    5.8765    3.3893 H   0  0  0  0  0  0  0  0  0  0  0  0
   -0.5607    4.8077    3.9248 H   0  0  0  0  0  0  0  0  0  0  0  0
   -1.6429    4.0704    1.8651 S   0  0  0  0  0  0  0  0  0  0  0  0
   -0.2847    4.8559    1.0018 C   0  0  0  0  0  0  0  0  0  0  0  0
    0.3367    5.2757    1.6649 H   0  0  0  0  0  0  0  0  0  0  0  0
    0.2139    4.1718    0.4669 H   0  0  0  0  0  0  0  0  0  0  0  0
   -0.6403    5.5626    0.3884 H   0  0  0  0  0  0  0  0  0  0  0  0
  1  5  1  0
  5  8  1  0
  1  2  1  0
  1  3  1  0
  1  4  1  0
  5  6  1  0
  5  7  1  0
  8  9  1  0
  8 10  1  0
  8 11  1  0
 12 16  1  0
 16 17  1  0
 12 13  1  0
 12 14  1  0
 12 15  1  0
 17 18  1  0
 17 19  1  0
 17 20  1  0
M  CHG  1   8   1
M  END
>  <PDB_ID>  (1866) 
pdb5wu7

>  <RESIDUE_NAME>  (1866) 
LYS   MET

>  <FRAG_NAME>  (1866) 
ETAM   MSM

>  <FRAG_ATOM_NUM>  (1866) 
fragi: 11  fragj: 9

>  <atom.prop.CHAIN_ID>  (1866) 
A A A A A A A A A A A Z Z Z Z Z Z Z Z Z

>  <atom.prop.IS_HEAVY_ATOM>  (1866) 
1 0 0 0 1 0 0 1 0 0 0 1 0 0 0 1 1 0 0 0

>  <DIFUSE_FUNC_ATOM>  (1866) 
n/a

>  <FINAL_SINGLE_POINT_ENERGY>  (1866) 
0

>  <NONCOV_INTER_ENERGY_QM>  (1866) 
0

>  <FF_Energy>  (1866) 
-4.75

>  <QM_Energy>  (1866) 
-11.18

>  <source>  (1866) 
ETAM_MSM

>  <Index>  (1866) 
11927

$$$$
ETAM-pdb5wu7-B-LYS-84:MSM-pdb5wu7-B-MET-81
     RDKit          3D

 20 18  0  0  0  0  0  0  0  0999 V2000
    1.2491    0.8674    0.0000 C   0  0  0  0  0  0  0  0  0  0  0  0
    2.0337    0.2860   -0.1178 H   0  0  0  0  0  0  0  0  0  0  0  0
    1.2807    1.3689    0.8450 H   0  0  0  0  0  0  0  0  0  0  0  0
    1.1833    1.5636   -0.8361 H   0  0  0  0  0  0  0  0  0  0  0  0
    0.0000    0.0000    0.0000 C   0  0  0  0  0  0  0  0  0  0  0  0
    0.0028   -0.5789   -0.8166 H   0  0  0  0  0  0  0  0  0  0  0  0
    0.0026   -0.5794    0.8158 H   0  0  0  0  0  0  0  0  0  0  0  0
   -1.2491    0.8333    0.0000 N   0  0  0  0  0  4  0  0  0  0  0  0
   -1.1722    1.5341   -0.7055 H   0  0  0  0  0  0  0  0  0  0  0  0
   -2.0324    0.2448   -0.1893 H   0  0  0  0  0  0  0  0  0  0  0  0
   -1.3540    1.2614    0.8953 H   0  0  0  0  0  0  0  0  0  0  0  0
   -2.5458    4.7345   -3.3130 C   0  0  0  0  0  0  0  0  0  0  0  0
   -2.9799    5.4990   -2.7757 H   0  0  0  0  0  0  0  0  0  0  0  0
   -3.1732    4.5885   -4.1175 H   0  0  0  0  0  0  0  0  0  0  0  0
   -1.5837    5.0839   -3.6874 H   0  0  0  0  0  0  0  0  0  0  0  0
   -2.4349    3.2351   -2.3120 S   0  0  0  0  0  0  0  0  0  0  0  0
   -1.8651    2.0431   -3.5226 C   0  0  0  0  0  0  0  0  0  0  0  0
   -1.3388    2.5121   -4.2332 H   0  0  0  0  0  0  0  0  0  0  0  0
   -1.2838    1.3621   -3.0751 H   0  0  0  0  0  0  0  0  0  0  0  0
   -2.6521    1.5862   -3.9391 H   0  0  0  0  0  0  0  0  0  0  0  0
  1  5  1  0
  5  8  1  0
  1  2  1  0
  1  3  1  0
  1  4  1  0
  5  6  1  0
  5  7  1  0
  8  9  1  0
  8 10  1  0
  8 11  1  0
 12 16  1  0
 16 17  1  0
 12 13  1  0
 12 14  1  0
 12 15  1  0
 17 18  1  0
 17 19  1  0
 17 20  1  0
M  CHG  1   8   1
M  END
>  <PDB_ID>  (1867) 
pdb5wu7

>  <RESIDUE_NAME>  (1867) 
LYS   MET

>  <FRAG_NAME>  (1867) 
ETAM   MSM

>  <FRAG_ATOM_NUM>  (1867) 
fragi: 11  fragj: 9

>  <atom.prop.CHAIN_ID>  (1867) 
A A A A A A A A A A A Z Z Z Z Z Z Z Z Z

>  <atom.prop.IS_HEAVY_ATOM>  (1867) 
1 0 0 0 1 0 0 1 0 0 0 1 0 0 0 1 1 0 0 0

>  <DIFUSE_FUNC_ATOM>  (1867) 
n/a

>  <FINAL_SINGLE_POINT_ENERGY>  (1867) 
0

>  <NONCOV_INTER_ENERGY_QM>  (1867) 
0

>  <FF_Energy>  (1867) 
-4.76

>  <QM_Energy>  (1867) 
-10.12

>  <source>  (1867) 
ETAM_MSM

>  <Index>  (1867) 
11930

$$$$
ETAM-pdb5wy4-A-LYS-116:MSM-pdb5wy4-A-MET-112
     RDKit          3D

 20 18  0  0  0  0  0  0  0  0999 V2000
    1.2433    0.8929    0.0000 C   0  0  0  0  0  0  0  0  0  0  0  0
    1.1791    1.5123    0.7720 H   0  0  0  0  0  0  0  0  0  0  0  0
    1.2643    1.3942   -0.8554 H   0  0  0  0  0  0  0  0  0  0  0  0
    2.1471    0.2904    0.0912 H   0  0  0  0  0  0  0  0  0  0  0  0
    0.0000    0.0000    0.0000 C   0  0  0  0  0  0  0  0  0  0  0  0
    0.0227   -0.5784   -0.8164 H   0  0  0  0  0  0  0  0  0  0  0  0
    0.0214   -0.5782    0.8166 H   0  0  0  0  0  0  0  0  0  0  0  0
   -1.2433    0.8096   -0.0000 N   0  0  0  0  0  4  0  0  0  0  0  0
   -1.1628    1.5453    0.6731 H   0  0  0  0  0  0  0  0  0  0  0  0
   -1.3855    1.2034   -0.9083 H   0  0  0  0  0  0  0  0  0  0  0  0
   -2.0214    0.2264    0.2351 H   0  0  0  0  0  0  0  0  0  0  0  0
    0.2577   -1.1008    3.9564 C   0  0  0  0  0  0  0  0  0  0  0  0
   -0.7613   -1.2677    3.8851 H   0  0  0  0  0  0  0  0  0  0  0  0
    0.4554   -0.4134    3.2087 H   0  0  0  0  0  0  0  0  0  0  0  0
    0.4465   -0.6131    4.9127 H   0  0  0  0  0  0  0  0  0  0  0  0
    1.1809   -2.6451    3.6663 S   0  0  0  0  0  0  0  0  0  0  0  0
    1.0955   -2.7800    1.9003 C   0  0  0  0  0  0  0  0  0  0  0  0
    0.4361   -3.4907    1.6407 H   0  0  0  0  0  0  0  0  0  0  0  0
    0.8043   -1.9052    1.5013 H   0  0  0  0  0  0  0  0  0  0  0  0
    1.9963   -3.0218    1.5288 H   0  0  0  0  0  0  0  0  0  0  0  0
  1  5  1  0
  5  8  1  0
  1  2  1  0
  1  3  1  0
  1  4  1  0
  5  6  1  0
  5  7  1  0
  8  9  1  0
  8 10  1  0
  8 11  1  0
 12 16  1  0
 16 17  1  0
 12 13  1  0
 12 14  1  0
 12 15  1  0
 17 18  1  0
 17 19  1  0
 17 20  1  0
M  CHG  1   8   1
M  END
>  <PDB_ID>  (1868) 
pdb5wy4

>  <RESIDUE_NAME>  (1868) 
LYS   MET

>  <FRAG_NAME>  (1868) 
ETAM   MSM

>  <FRAG_ATOM_NUM>  (1868) 
fragi: 11  fragj: 9

>  <atom.prop.CHAIN_ID>  (1868) 
A A A A A A A A A A A Z Z Z Z Z Z Z Z Z

>  <atom.prop.IS_HEAVY_ATOM>  (1868) 
1 0 0 0 1 0 0 1 0 0 0 1 0 0 0 1 1 0 0 0

>  <DIFUSE_FUNC_ATOM>  (1868) 
n/a

>  <FINAL_SINGLE_POINT_ENERGY>  (1868) 
0

>  <NONCOV_INTER_ENERGY_QM>  (1868) 
0

>  <FF_Energy>  (1868) 
8.71

>  <QM_Energy>  (1868) 
3.29

>  <source>  (1868) 
ETAM_MSM

>  <Index>  (1868) 
11954

$$$$
ETAM-pdb5wrj-C-LYS-323:MSM-pdb5wrj-C-MET-320
     RDKit          3D

 20 18  0  0  0  0  0  0  0  0999 V2000
    1.2408    0.8751    0.0000 C   0  0  0  0  0  0  0  0  0  0  0  0
    1.3114    1.3287    0.8852 H   0  0  0  0  0  0  0  0  0  0  0  0
    1.1534    1.5523   -0.7253 H   0  0  0  0  0  0  0  0  0  0  0  0
    2.1477    0.2945   -0.1689 H   0  0  0  0  0  0  0  0  0  0  0  0
    0.0000    0.0000    0.0000 C   0  0  0  0  0  0  0  0  0  0  0  0
    0.0101   -0.5799   -0.8155 H   0  0  0  0  0  0  0  0  0  0  0  0
    0.0096   -0.5808    0.8165 H   0  0  0  0  0  0  0  0  0  0  0  0
   -1.2408    0.8223   -0.0000 N   0  0  0  0  0  4  0  0  0  0  0  0
   -1.2964    1.3384   -0.8546 H   0  0  0  0  0  0  0  0  0  0  0  0
   -2.0365    0.2222    0.0811 H   0  0  0  0  0  0  0  0  0  0  0  0
   -1.2185    1.4550    0.7733 H   0  0  0  0  0  0  0  0  0  0  0  0
   -0.4507   -1.4294    4.3848 C   0  0  0  0  0  0  0  0  0  0  0  0
   -1.1928   -1.8198    3.7802 H   0  0  0  0  0  0  0  0  0  0  0  0
   -0.9096   -1.3008    5.3018 H   0  0  0  0  0  0  0  0  0  0  0  0
    0.3286   -2.1833    4.4963 H   0  0  0  0  0  0  0  0  0  0  0  0
    0.1309    0.1511    3.7381 S   0  0  0  0  0  0  0  0  0  0  0  0
    1.3591    0.6284    4.9487 C   0  0  0  0  0  0  0  0  0  0  0  0
    0.9925    1.3569    5.5310 H   0  0  0  0  0  0  0  0  0  0  0  0
    1.5971   -0.1615    5.5166 H   0  0  0  0  0  0  0  0  0  0  0  0
    2.1811    0.9599    4.4826 H   0  0  0  0  0  0  0  0  0  0  0  0
  1  5  1  0
  5  8  1  0
  1  2  1  0
  1  3  1  0
  1  4  1  0
  5  6  1  0
  5  7  1  0
  8  9  1  0
  8 10  1  0
  8 11  1  0
 12 16  1  0
 16 17  1  0
 12 13  1  0
 12 14  1  0
 12 15  1  0
 17 18  1  0
 17 19  1  0
 17 20  1  0
M  CHG  1   8   1
M  END
>  <PDB_ID>  (1869) 
pdb5wrj

>  <RESIDUE_NAME>  (1869) 
LYS   MET

>  <FRAG_NAME>  (1869) 
ETAM   MSM

>  <FRAG_ATOM_NUM>  (1869) 
fragi: 11  fragj: 9

>  <atom.prop.CHAIN_ID>  (1869) 
A A A A A A A A A A A Z Z Z Z Z Z Z Z Z

>  <atom.prop.IS_HEAVY_ATOM>  (1869) 
1 0 0 0 1 0 0 1 0 0 0 1 0 0 0 1 1 0 0 0

>  <DIFUSE_FUNC_ATOM>  (1869) 
n/a

>  <FINAL_SINGLE_POINT_ENERGY>  (1869) 
0

>  <NONCOV_INTER_ENERGY_QM>  (1869) 
0

>  <FF_Energy>  (1869) 
-4.91

>  <QM_Energy>  (1869) 
-10.56

>  <source>  (1869) 
ETAM_MSM

>  <Index>  (1869) 
11957

$$$$
ETAM-pdb5wze-D-LYS-427:MSM-pdb5wze-D-MET-298
     RDKit          3D

 20 18  0  0  0  0  0  0  0  0999 V2000
    1.2368    0.8489    0.0000 C   0  0  0  0  0  0  0  0  0  0  0  0
    1.3360    1.2744    0.8961 H   0  0  0  0  0  0  0  0  0  0  0  0
    1.1454    1.5510   -0.7019 H   0  0  0  0  0  0  0  0  0  0  0  0
    2.1229    0.2494   -0.2085 H   0  0  0  0  0  0  0  0  0  0  0  0
    0.0000    0.0000    0.0000 C   0  0  0  0  0  0  0  0  0  0  0  0
    0.0051   -0.5937   -0.8166 H   0  0  0  0  0  0  0  0  0  0  0  0
    0.0048   -0.5936    0.8170 H   0  0  0  0  0  0  0  0  0  0  0  0
   -1.2368    0.8085    0.0000 N   0  0  0  0  0  4  0  0  0  0  0  0
   -1.9879    0.2759    0.3926 H   0  0  0  0  0  0  0  0  0  0  0  0
   -1.0984    1.6366    0.5462 H   0  0  0  0  0  0  0  0  0  0  0  0
   -1.4701    1.0670   -0.9395 H   0  0  0  0  0  0  0  0  0  0  0  0
   -1.4856   -1.0265    4.6259 C   0  0  0  0  0  0  0  0  0  0  0  0
   -0.8883   -0.1845    4.5573 H   0  0  0  0  0  0  0  0  0  0  0  0
   -0.8658   -1.7456    5.0358 H   0  0  0  0  0  0  0  0  0  0  0  0
   -2.2867   -0.8198    5.3356 H   0  0  0  0  0  0  0  0  0  0  0  0
   -2.0522   -1.5362    2.9899 S   0  0  0  0  0  0  0  0  0  0  0  0
   -3.1571   -2.8597    3.3790 C   0  0  0  0  0  0  0  0  0  0  0  0
   -4.1004   -2.5180    3.4437 H   0  0  0  0  0  0  0  0  0  0  0  0
   -3.1186   -3.5660    2.6644 H   0  0  0  0  0  0  0  0  0  0  0  0
   -2.9046   -3.2765    4.2581 H   0  0  0  0  0  0  0  0  0  0  0  0
  1  5  1  0
  5  8  1  0
  1  2  1  0
  1  3  1  0
  1  4  1  0
  5  6  1  0
  5  7  1  0
  8  9  1  0
  8 10  1  0
  8 11  1  0
 12 16  1  0
 16 17  1  0
 12 13  1  0
 12 14  1  0
 12 15  1  0
 17 18  1  0
 17 19  1  0
 17 20  1  0
M  CHG  1   8   1
M  END
>  <PDB_ID>  (1870) 
pdb5wze

>  <RESIDUE_NAME>  (1870) 
LYS   MET

>  <FRAG_NAME>  (1870) 
ETAM   MSM

>  <FRAG_ATOM_NUM>  (1870) 
fragi: 11  fragj: 9

>  <atom.prop.CHAIN_ID>  (1870) 
A A A A A A A A A A A Z Z Z Z Z Z Z Z Z

>  <atom.prop.IS_HEAVY_ATOM>  (1870) 
1 0 0 0 1 0 0 1 0 0 0 1 0 0 0 1 1 0 0 0

>  <DIFUSE_FUNC_ATOM>  (1870) 
n/a

>  <FINAL_SINGLE_POINT_ENERGY>  (1870) 
0

>  <NONCOV_INTER_ENERGY_QM>  (1870) 
0

>  <FF_Energy>  (1870) 
-5.02

>  <QM_Energy>  (1870) 
-11.46

>  <source>  (1870) 
ETAM_MSM

>  <Index>  (1870) 
11967

$$$$
ETAM-pdb5wu7-B-LYS-479:MSM-pdb5wu7-B-MET-473
     RDKit          3D

 20 18  0  0  0  0  0  0  0  0999 V2000
    1.2458    0.8731    0.0000 C   0  0  0  0  0  0  0  0  0  0  0  0
    1.3514    1.2748    0.9030 H   0  0  0  0  0  0  0  0  0  0  0  0
    1.1341    1.5834   -0.6856 H   0  0  0  0  0  0  0  0  0  0  0  0
    2.1369    0.2909   -0.2347 H   0  0  0  0  0  0  0  0  0  0  0  0
    0.0000    0.0000    0.0000 C   0  0  0  0  0  0  0  0  0  0  0  0
    0.0109   -0.5818   -0.8159 H   0  0  0  0  0  0  0  0  0  0  0  0
    0.0106   -0.5828    0.8166 H   0  0  0  0  0  0  0  0  0  0  0  0
   -1.2458    0.8180    0.0000 N   0  0  0  0  0  4  0  0  0  0  0  0
   -1.3180    1.3098   -0.8669 H   0  0  0  0  0  0  0  0  0  0  0  0
   -2.0357    0.2169    0.1118 H   0  0  0  0  0  0  0  0  0  0  0  0
   -1.2121    1.4723    0.7547 H   0  0  0  0  0  0  0  0  0  0  0  0
   -0.0161   -0.0593   -3.7380 C   0  0  0  0  0  0  0  0  0  0  0  0
    0.6321    0.5612   -3.2439 H   0  0  0  0  0  0  0  0  0  0  0  0
    0.2213    0.0271   -4.7309 H   0  0  0  0  0  0  0  0  0  0  0  0
    0.1781   -1.0844   -3.4225 H   0  0  0  0  0  0  0  0  0  0  0  0
   -1.7235    0.4365   -3.4440 S   0  0  0  0  0  0  0  0  0  0  0  0
   -2.4236    0.2228   -5.0783 C   0  0  0  0  0  0  0  0  0  0  0  0
   -2.9385    1.0426   -5.3326 H   0  0  0  0  0  0  0  0  0  0  0  0
   -1.6883    0.0737   -5.7417 H   0  0  0  0  0  0  0  0  0  0  0  0
   -3.0374   -0.5683   -5.0805 H   0  0  0  0  0  0  0  0  0  0  0  0
  1  5  1  0
  5  8  1  0
  1  2  1  0
  1  3  1  0
  1  4  1  0
  5  6  1  0
  5  7  1  0
  8  9  1  0
  8 10  1  0
  8 11  1  0
 12 16  1  0
 16 17  1  0
 12 13  1  0
 12 14  1  0
 12 15  1  0
 17 18  1  0
 17 19  1  0
 17 20  1  0
M  CHG  1   8   1
M  END
>  <PDB_ID>  (1871) 
pdb5wu7

>  <RESIDUE_NAME>  (1871) 
LYS   MET

>  <FRAG_NAME>  (1871) 
ETAM   MSM

>  <FRAG_ATOM_NUM>  (1871) 
fragi: 11  fragj: 9

>  <atom.prop.CHAIN_ID>  (1871) 
A A A A A A A A A A A Z Z Z Z Z Z Z Z Z

>  <atom.prop.IS_HEAVY_ATOM>  (1871) 
1 0 0 0 1 0 0 1 0 0 0 1 0 0 0 1 1 0 0 0

>  <DIFUSE_FUNC_ATOM>  (1871) 
n/a

>  <FINAL_SINGLE_POINT_ENERGY>  (1871) 
0

>  <NONCOV_INTER_ENERGY_QM>  (1871) 
0

>  <FF_Energy>  (1871) 
-5.57

>  <QM_Energy>  (1871) 
-11.98

>  <source>  (1871) 
ETAM_MSM

>  <Index>  (1871) 
11971

$$$$
ETAM-pdb5x62-A-LYS-133:MSM-pdb5x62-A-MET-159
     RDKit          3D

 20 18  0  0  0  0  0  0  0  0999 V2000
    1.2326    0.8727   -0.0000 C   0  0  0  0  0  0  0  0  0  0  0  0
    1.2137    1.4527    0.8166 H   0  0  0  0  0  0  0  0  0  0  0  0
    1.2138    1.4530   -0.8167 H   0  0  0  0  0  0  0  0  0  0  0  0
    2.1579    0.2965   -0.0001 H   0  0  0  0  0  0  0  0  0  0  0  0
    0.0000    0.0000    0.0000 C   0  0  0  0  0  0  0  0  0  0  0  0
    0.0073   -0.5790   -0.8172 H   0  0  0  0  0  0  0  0  0  0  0  0
    0.0071   -0.5802    0.8159 H   0  0  0  0  0  0  0  0  0  0  0  0
   -1.2326    0.8269    0.0000 N   0  0  0  0  0  4  0  0  0  0  0  0
   -0.9943    1.7807   -0.1871 H   0  0  0  0  0  0  0  0  0  0  0  0
   -1.8582    0.4946   -0.7072 H   0  0  0  0  0  0  0  0  0  0  0  0
   -1.6772    0.7643    0.8938 H   0  0  0  0  0  0  0  0  0  0  0  0
   -0.6345   -4.6966   -1.2846 C   0  0  0  0  0  0  0  0  0  0  0  0
   -1.1171   -3.9423   -1.7608 H   0  0  0  0  0  0  0  0  0  0  0  0
   -1.3271   -5.4011   -1.0572 H   0  0  0  0  0  0  0  0  0  0  0  0
    0.1041   -5.1277   -1.9605 H   0  0  0  0  0  0  0  0  0  0  0  0
    0.1724   -4.0893    0.2158 S   0  0  0  0  0  0  0  0  0  0  0  0
    1.3305   -2.9047   -0.4485 C   0  0  0  0  0  0  0  0  0  0  0  0
    0.9941   -1.9742   -0.2877 H   0  0  0  0  0  0  0  0  0  0  0  0
    2.2207   -3.0137   -0.0024 H   0  0  0  0  0  0  0  0  0  0  0  0
    1.4367   -3.0502   -1.4349 H   0  0  0  0  0  0  0  0  0  0  0  0
  1  5  1  0
  5  8  1  0
  1  2  1  0
  1  3  1  0
  1  4  1  0
  5  6  1  0
  5  7  1  0
  8  9  1  0
  8 10  1  0
  8 11  1  0
 12 16  1  0
 16 17  1  0
 12 13  1  0
 12 14  1  0
 12 15  1  0
 17 18  1  0
 17 19  1  0
 17 20  1  0
M  CHG  1   8   1
M  END
>  <PDB_ID>  (1872) 
pdb5x62

>  <RESIDUE_NAME>  (1872) 
LYS   MET

>  <FRAG_NAME>  (1872) 
ETAM   MSM

>  <FRAG_ATOM_NUM>  (1872) 
fragi: 11  fragj: 9

>  <atom.prop.CHAIN_ID>  (1872) 
A A A A A A A A A A A Z Z Z Z Z Z Z Z Z

>  <atom.prop.IS_HEAVY_ATOM>  (1872) 
1 0 0 0 1 0 0 1 0 0 0 1 0 0 0 1 1 0 0 0

>  <DIFUSE_FUNC_ATOM>  (1872) 
n/a

>  <FINAL_SINGLE_POINT_ENERGY>  (1872) 
0

>  <NONCOV_INTER_ENERGY_QM>  (1872) 
0

>  <FF_Energy>  (1872) 
7.53

>  <QM_Energy>  (1872) 
0.64

>  <source>  (1872) 
ETAM_MSM

>  <Index>  (1872) 
11977

$$$$
ETAM-pdb5x20-B-LYS-166:MSM-pdb5x20-B-MET-1
     RDKit          3D

 20 18  0  0  0  0  0  0  0  0999 V2000
    1.2461    0.8701   -0.0000 C   0  0  0  0  0  0  0  0  0  0  0  0
    0.9745    1.8130    0.1599 H   0  0  0  0  0  0  0  0  0  0  0  0
    1.6941    0.7830   -0.8833 H   0  0  0  0  0  0  0  0  0  0  0  0
    1.9420    0.5654    0.7816 H   0  0  0  0  0  0  0  0  0  0  0  0
    0.0000    0.0000    0.0000 C   0  0  0  0  0  0  0  0  0  0  0  0
    0.0110   -0.5845   -0.8162 H   0  0  0  0  0  0  0  0  0  0  0  0
    0.0111   -0.5843    0.8160 H   0  0  0  0  0  0  0  0  0  0  0  0
   -1.2461    0.8151   -0.0000 N   0  0  0  0  0  4  0  0  0  0  0  0
   -2.0125    0.2481    0.3005 H   0  0  0  0  0  0  0  0  0  0  0  0
   -1.1361    1.5882    0.6238 H   0  0  0  0  0  0  0  0  0  0  0  0
   -1.4208    1.1534   -0.9243 H   0  0  0  0  0  0  0  0  0  0  0  0
   -2.0902   -1.1290    3.6820 C   0  0  0  0  0  0  0  0  0  0  0  0
   -2.0626   -0.1289    3.9083 H   0  0  0  0  0  0  0  0  0  0  0  0
   -1.9290   -1.6156    4.5707 H   0  0  0  0  0  0  0  0  0  0  0  0
   -3.0916   -1.3752    3.3289 H   0  0  0  0  0  0  0  0  0  0  0  0
   -0.8090   -1.5475    2.4851 S   0  0  0  0  0  0  0  0  0  0  0  0
    0.6588   -1.4298    3.5050 C   0  0  0  0  0  0  0  0  0  0  0  0
    0.4417   -1.7159    4.4394 H   0  0  0  0  0  0  0  0  0  0  0  0
    1.3742   -2.0237    3.1339 H   0  0  0  0  0  0  0  0  0  0  0  0
    0.9860   -0.4837    3.5149 H   0  0  0  0  0  0  0  0  0  0  0  0
  1  5  1  0
  5  8  1  0
  1  2  1  0
  1  3  1  0
  1  4  1  0
  5  6  1  0
  5  7  1  0
  8  9  1  0
  8 10  1  0
  8 11  1  0
 12 16  1  0
 16 17  1  0
 12 13  1  0
 12 14  1  0
 12 15  1  0
 17 18  1  0
 17 19  1  0
 17 20  1  0
M  CHG  1   8   1
M  END
>  <PDB_ID>  (1873) 
pdb5x20

>  <RESIDUE_NAME>  (1873) 
LYS   MET

>  <FRAG_NAME>  (1873) 
ETAM   MSM

>  <FRAG_ATOM_NUM>  (1873) 
fragi: 11  fragj: 9

>  <atom.prop.CHAIN_ID>  (1873) 
A A A A A A A A A A A Z Z Z Z Z Z Z Z Z

>  <atom.prop.IS_HEAVY_ATOM>  (1873) 
1 0 0 0 1 0 0 1 0 0 0 1 0 0 0 1 1 0 0 0

>  <DIFUSE_FUNC_ATOM>  (1873) 
n/a

>  <FINAL_SINGLE_POINT_ENERGY>  (1873) 
0

>  <NONCOV_INTER_ENERGY_QM>  (1873) 
0

>  <FF_Energy>  (1873) 
26.49

>  <QM_Energy>  (1873) 
-3.57

>  <source>  (1873) 
ETAM_MSM

>  <Index>  (1873) 
11985

$$$$
ETAM-pdb5x8z-A-LYS-332:MSM-pdb5x8z-A-MET-313
     RDKit          3D

 20 18  0  0  0  0  0  0  0  0999 V2000
    1.2841    0.8397   -0.0000 C   0  0  0  0  0  0  0  0  0  0  0  0
    1.9699    0.3508    0.5346 H   0  0  0  0  0  0  0  0  0  0  0  0
    1.0769    1.7143    0.4306 H   0  0  0  0  0  0  0  0  0  0  0  0
    1.6594    1.0079   -1.0094 H   0  0  0  0  0  0  0  0  0  0  0  0
    0.0000    0.0000    0.0000 C   0  0  0  0  0  0  0  0  0  0  0  0
   -0.0056   -0.5905   -0.8161 H   0  0  0  0  0  0  0  0  0  0  0  0
   -0.0066   -0.5910    0.8161 H   0  0  0  0  0  0  0  0  0  0  0  0
   -1.2841    0.8265    0.0000 N   0  0  0  0  0  4  0  0  0  0  0  0
   -1.2752    1.4166   -0.7992 H   0  0  0  0  0  0  0  0  0  0  0  0
   -2.0571    0.2031   -0.0340 H   0  0  0  0  0  0  0  0  0  0  0  0
   -1.3072    1.3672    0.8326 H   0  0  0  0  0  0  0  0  0  0  0  0
    0.5963    4.5435    3.6364 C   0  0  0  0  0  0  0  0  0  0  0  0
    0.8353    4.1176    4.5488 H   0  0  0  0  0  0  0  0  0  0  0  0
   -0.3273    4.9825    3.7978 H   0  0  0  0  0  0  0  0  0  0  0  0
    1.3183    5.3340    3.4309 H   0  0  0  0  0  0  0  0  0  0  0  0
    0.4933    3.2955    2.3581 S   0  0  0  0  0  0  0  0  0  0  0  0
   -0.1847    4.1702    1.0198 C   0  0  0  0  0  0  0  0  0  0  0  0
   -0.8223    3.5901    0.4921 H   0  0  0  0  0  0  0  0  0  0  0  0
   -0.6962    4.9821    1.3378 H   0  0  0  0  0  0  0  0  0  0  0  0
    0.5387    4.4870    0.3893 H   0  0  0  0  0  0  0  0  0  0  0  0
  1  5  1  0
  5  8  1  0
  1  2  1  0
  1  3  1  0
  1  4  1  0
  5  6  1  0
  5  7  1  0
  8  9  1  0
  8 10  1  0
  8 11  1  0
 12 16  1  0
 16 17  1  0
 12 13  1  0
 12 14  1  0
 12 15  1  0
 17 18  1  0
 17 19  1  0
 17 20  1  0
M  CHG  1   8   1
M  END
>  <PDB_ID>  (1874) 
pdb5x8z

>  <RESIDUE_NAME>  (1874) 
LYS   MET

>  <FRAG_NAME>  (1874) 
ETAM   MSM

>  <FRAG_ATOM_NUM>  (1874) 
fragi: 11  fragj: 9

>  <atom.prop.CHAIN_ID>  (1874) 
A A A A A A A A A A A Z Z Z Z Z Z Z Z Z

>  <atom.prop.IS_HEAVY_ATOM>  (1874) 
1 0 0 0 1 0 0 1 0 0 0 1 0 0 0 1 1 0 0 0

>  <DIFUSE_FUNC_ATOM>  (1874) 
n/a

>  <FINAL_SINGLE_POINT_ENERGY>  (1874) 
0

>  <NONCOV_INTER_ENERGY_QM>  (1874) 
0

>  <FF_Energy>  (1874) 
-1.91

>  <QM_Energy>  (1874) 
-7.38

>  <source>  (1874) 
ETAM_MSM

>  <Index>  (1874) 
12000

$$$$
ETAM-pdb5xe2-A-LYS-76:MSM-pdb5xe2-A-MET-3
     RDKit          3D

 20 18  0  0  0  0  0  0  0  0999 V2000
    1.2518    0.8567    0.0000 C   0  0  0  0  0  0  0  0  0  0  0  0
    1.2498    1.4139    0.7932 H   0  0  0  0  0  0  0  0  0  0  0  0
    1.2611    1.3989   -0.8042 H   0  0  0  0  0  0  0  0  0  0  0  0
    2.1199    0.1976    0.0119 H   0  0  0  0  0  0  0  0  0  0  0  0
    0.0000    0.0000    0.0000 C   0  0  0  0  0  0  0  0  0  0  0  0
    0.0035   -0.5487   -0.7974 H   0  0  0  0  0  0  0  0  0  0  0  0
    0.0051   -0.5707    0.7830 H   0  0  0  0  0  0  0  0  0  0  0  0
   -1.2518    0.8042    0.0000 N   0  0  0  0  0  4  0  0  0  0  0  0
   -1.2341    1.4368    0.7205 H   0  0  0  0  0  0  0  0  0  0  0  0
   -2.0118    0.2285    0.1087 H   0  0  0  0  0  0  0  0  0  0  0  0
   -1.3356    1.2785   -0.8310 H   0  0  0  0  0  0  0  0  0  0  0  0
   -1.0731    4.4763    0.3996 C   0  0  0  0  0  0  0  0  0  0  0  0
   -1.7948    5.1174    0.4929 H   0  0  0  0  0  0  0  0  0  0  0  0
   -1.3621    3.7332   -0.1530 H   0  0  0  0  0  0  0  0  0  0  0  0
   -0.2157    4.9576   -0.0709 H   0  0  0  0  0  0  0  0  0  0  0  0
   -0.7212    3.8194    2.0445 S   0  0  0  0  0  0  0  0  0  0  0  0
   -2.4081    3.4644    2.5314 C   0  0  0  0  0  0  0  0  0  0  0  0
   -2.8593    4.2923    2.7177 H   0  0  0  0  0  0  0  0  0  0  0  0
   -2.3989    2.9102    3.3133 H   0  0  0  0  0  0  0  0  0  0  0  0
   -2.8486    3.0066    1.8104 H   0  0  0  0  0  0  0  0  0  0  0  0
  1  5  1  0
  5  8  1  0
  1  2  1  0
  1  3  1  0
  1  4  1  0
  5  6  1  0
  5  7  1  0
  8  9  1  0
  8 10  1  0
  8 11  1  0
 12 16  1  0
 16 17  1  0
 12 13  1  0
 12 14  1  0
 12 15  1  0
 17 18  1  0
 17 19  1  0
 17 20  1  0
M  CHG  1   8   1
M  END
>  <PDB_ID>  (1875) 
pdb5xe2

>  <RESIDUE_NAME>  (1875) 
LYS   MET

>  <FRAG_NAME>  (1875) 
ETAM   MSM

>  <FRAG_ATOM_NUM>  (1875) 
fragi: 11  fragj: 9

>  <atom.prop.CHAIN_ID>  (1875) 
A A A A A A A A A A A Z Z Z Z Z Z Z Z Z

>  <atom.prop.IS_HEAVY_ATOM>  (1875) 
1 0 0 0 1 0 0 1 0 0 0 1 0 0 0 1 1 0 0 0

>  <DIFUSE_FUNC_ATOM>  (1875) 
n/a

>  <FINAL_SINGLE_POINT_ENERGY>  (1875) 
0

>  <NONCOV_INTER_ENERGY_QM>  (1875) 
0

>  <FF_Energy>  (1875) 
-2.98

>  <QM_Energy>  (1875) 
-9.28

>  <source>  (1875) 
ETAM_MSM

>  <Index>  (1875) 
12001

$$$$
ETAM-pdb5xe0-A-LYS-121:MSM-pdb5xe0-A-MET-140
     RDKit          3D

 20 18  0  0  0  0  0  0  0  0999 V2000
    1.2402    0.8649   -0.0000 C   0  0  0  0  0  0  0  0  0  0  0  0
    1.9859    0.3574    0.4154 H   0  0  0  0  0  0  0  0  0  0  0  0
    1.0533    1.6943    0.5132 H   0  0  0  0  0  0  0  0  0  0  0  0
    1.5240    1.1365   -1.0168 H   0  0  0  0  0  0  0  0  0  0  0  0
    0.0000    0.0000    0.0000 C   0  0  0  0  0  0  0  0  0  0  0  0
    0.0157   -0.5920   -0.8166 H   0  0  0  0  0  0  0  0  0  0  0  0
    0.0152   -0.5919    0.8161 H   0  0  0  0  0  0  0  0  0  0  0  0
   -1.2402    0.7976   -0.0000 N   0  0  0  0  0  4  0  0  0  0  0  0
   -1.6347    0.8101   -0.9214 H   0  0  0  0  0  0  0  0  0  0  0  0
   -1.9016    0.3952    0.6362 H   0  0  0  0  0  0  0  0  0  0  0  0
   -1.0388    1.7368    0.2852 H   0  0  0  0  0  0  0  0  0  0  0  0
   -5.1135    2.0373   -0.6330 C   0  0  0  0  0  0  0  0  0  0  0  0
   -5.6379    1.1550   -0.5592 H   0  0  0  0  0  0  0  0  0  0  0  0
   -4.5008    1.9148   -1.4512 H   0  0  0  0  0  0  0  0  0  0  0  0
   -5.8206    2.8377   -0.8509 H   0  0  0  0  0  0  0  0  0  0  0  0
   -4.1310    2.3216    0.8601 S   0  0  0  0  0  0  0  0  0  0  0  0
   -5.0427    1.3803    2.0903 C   0  0  0  0  0  0  0  0  0  0  0  0
   -5.6827    0.7645    1.6310 H   0  0  0  0  0  0  0  0  0  0  0  0
   -4.4019    0.8456    2.6417 H   0  0  0  0  0  0  0  0  0  0  0  0
   -5.5486    2.0077    2.6819 H   0  0  0  0  0  0  0  0  0  0  0  0
  1  5  1  0
  5  8  1  0
  1  2  1  0
  1  3  1  0
  1  4  1  0
  5  6  1  0
  5  7  1  0
  8  9  1  0
  8 10  1  0
  8 11  1  0
 12 16  1  0
 16 17  1  0
 12 13  1  0
 12 14  1  0
 12 15  1  0
 17 18  1  0
 17 19  1  0
 17 20  1  0
M  CHG  1   8   1
M  END
>  <PDB_ID>  (1876) 
pdb5xe0

>  <RESIDUE_NAME>  (1876) 
LYS   MET

>  <FRAG_NAME>  (1876) 
ETAM   MSM

>  <FRAG_ATOM_NUM>  (1876) 
fragi: 11  fragj: 9

>  <atom.prop.CHAIN_ID>  (1876) 
A A A A A A A A A A A Z Z Z Z Z Z Z Z Z

>  <atom.prop.IS_HEAVY_ATOM>  (1876) 
1 0 0 0 1 0 0 1 0 0 0 1 0 0 0 1 1 0 0 0

>  <DIFUSE_FUNC_ATOM>  (1876) 
n/a

>  <FINAL_SINGLE_POINT_ENERGY>  (1876) 
0

>  <NONCOV_INTER_ENERGY_QM>  (1876) 
0

>  <FF_Energy>  (1876) 
-4.45

>  <QM_Energy>  (1876) 
-12.18

>  <source>  (1876) 
ETAM_MSM

>  <Index>  (1876) 
12002

$$$$
ETAM-pdb5xe0-A-LYS-247:MSM-pdb5xe0-A-MET-66
     RDKit          3D

 20 18  0  0  0  0  0  0  0  0999 V2000
    1.2501    0.8693    0.0000 C   0  0  0  0  0  0  0  0  0  0  0  0
    1.2268    1.4566    0.8014 H   0  0  0  0  0  0  0  0  0  0  0  0
    1.2578    1.4126   -0.8319 H   0  0  0  0  0  0  0  0  0  0  0  0
    2.1537    0.2605    0.0339 H   0  0  0  0  0  0  0  0  0  0  0  0
    0.0000    0.0000    0.0000 C   0  0  0  0  0  0  0  0  0  0  0  0
    0.0123   -0.5857   -0.8157 H   0  0  0  0  0  0  0  0  0  0  0  0
    0.0118   -0.5863    0.8163 H   0  0  0  0  0  0  0  0  0  0  0  0
   -1.2501    0.8109    0.0000 N   0  0  0  0  0  4  0  0  0  0  0  0
   -1.2783    1.3749    0.8239 H   0  0  0  0  0  0  0  0  0  0  0  0
   -1.2635    1.3973   -0.8095 H   0  0  0  0  0  0  0  0  0  0  0  0
   -2.0407    0.1992   -0.0153 H   0  0  0  0  0  0  0  0  0  0  0  0
   -1.7056    2.7162    4.5962 C   0  0  0  0  0  0  0  0  0  0  0  0
   -1.2470    3.1817    5.3809 H   0  0  0  0  0  0  0  0  0  0  0  0
   -2.3348    2.0234    5.0047 H   0  0  0  0  0  0  0  0  0  0  0  0
   -2.2986    3.4508    4.0513 H   0  0  0  0  0  0  0  0  0  0  0  0
   -0.4878    1.9191    3.5277 S   0  0  0  0  0  0  0  0  0  0  0  0
    0.4409    3.3397    2.9561 C   0  0  0  0  0  0  0  0  0  0  0  0
    0.0270    3.6968    2.1173 H   0  0  0  0  0  0  0  0  0  0  0  0
    0.4320    4.0523    3.6590 H   0  0  0  0  0  0  0  0  0  0  0  0
    1.3866    3.0695    2.7697 H   0  0  0  0  0  0  0  0  0  0  0  0
  1  5  1  0
  5  8  1  0
  1  2  1  0
  1  3  1  0
  1  4  1  0
  5  6  1  0
  5  7  1  0
  8  9  1  0
  8 10  1  0
  8 11  1  0
 12 16  1  0
 16 17  1  0
 12 13  1  0
 12 14  1  0
 12 15  1  0
 17 18  1  0
 17 19  1  0
 17 20  1  0
M  CHG  1   8   1
M  END
>  <PDB_ID>  (1877) 
pdb5xe0

>  <RESIDUE_NAME>  (1877) 
LYS   MET

>  <FRAG_NAME>  (1877) 
ETAM   MSM

>  <FRAG_ATOM_NUM>  (1877) 
fragi: 11  fragj: 9

>  <atom.prop.CHAIN_ID>  (1877) 
A A A A A A A A A A A Z Z Z Z Z Z Z Z Z

>  <atom.prop.IS_HEAVY_ATOM>  (1877) 
1 0 0 0 1 0 0 1 0 0 0 1 0 0 0 1 1 0 0 0

>  <DIFUSE_FUNC_ATOM>  (1877) 
n/a

>  <FINAL_SINGLE_POINT_ENERGY>  (1877) 
0

>  <NONCOV_INTER_ENERGY_QM>  (1877) 
0

>  <FF_Energy>  (1877) 
-4.95

>  <QM_Energy>  (1877) 
-12.85

>  <source>  (1877) 
ETAM_MSM

>  <Index>  (1877) 
12006

$$$$
ETAM-pdb5xd7-A-LYS-210:MSM-pdb5xd7-A-MET-175
     RDKit          3D

 20 18  0  0  0  0  0  0  0  0999 V2000
    1.2653    0.8712    0.0000 C   0  0  0  0  0  0  0  0  0  0  0  0
    1.2921    1.3846   -0.8553 H   0  0  0  0  0  0  0  0  0  0  0  0
    2.0595    0.2700    0.0584 H   0  0  0  0  0  0  0  0  0  0  0  0
    1.2979    1.5755    0.8313 H   0  0  0  0  0  0  0  0  0  0  0  0
    0.0000    0.0000    0.0000 C   0  0  0  0  0  0  0  0  0  0  0  0
    0.0199   -0.5908   -0.8164 H   0  0  0  0  0  0  0  0  0  0  0  0
    0.0197   -0.5908    0.8164 H   0  0  0  0  0  0  0  0  0  0  0  0
   -1.2653    0.7932    0.0000 N   0  0  0  0  0  4  0  0  0  0  0  0
   -1.6696    0.7674   -0.9126 H   0  0  0  0  0  0  0  0  0  0  0  0
   -1.9007    0.3984    0.6610 H   0  0  0  0  0  0  0  0  0  0  0  0
   -1.0612    1.7383    0.2511 H   0  0  0  0  0  0  0  0  0  0  0  0
   -1.1140   -1.9064    4.4844 C   0  0  0  0  0  0  0  0  0  0  0  0
   -2.0558   -1.5163    4.4597 H   0  0  0  0  0  0  0  0  0  0  0  0
   -0.8389   -1.9296    5.4670 H   0  0  0  0  0  0  0  0  0  0  0  0
   -1.1430   -2.9259    4.0996 H   0  0  0  0  0  0  0  0  0  0  0  0
    0.0209   -0.8856    3.5313 S   0  0  0  0  0  0  0  0  0  0  0  0
    1.5482   -1.8297    3.7184 C   0  0  0  0  0  0  0  0  0  0  0  0
    1.3313   -2.8049    3.7436 H   0  0  0  0  0  0  0  0  0  0  0  0
    2.1502   -1.6383    2.9446 H   0  0  0  0  0  0  0  0  0  0  0  0
    1.9971   -1.5622    4.5693 H   0  0  0  0  0  0  0  0  0  0  0  0
  1  5  1  0
  5  8  1  0
  1  2  1  0
  1  3  1  0
  1  4  1  0
  5  6  1  0
  5  7  1  0
  8  9  1  0
  8 10  1  0
  8 11  1  0
 12 16  1  0
 16 17  1  0
 12 13  1  0
 12 14  1  0
 12 15  1  0
 17 18  1  0
 17 19  1  0
 17 20  1  0
M  CHG  1   8   1
M  END
>  <PDB_ID>  (1878) 
pdb5xd7

>  <RESIDUE_NAME>  (1878) 
LYS   MET

>  <FRAG_NAME>  (1878) 
ETAM   MSM

>  <FRAG_ATOM_NUM>  (1878) 
fragi: 11  fragj: 9

>  <atom.prop.CHAIN_ID>  (1878) 
A A A A A A A A A A A Z Z Z Z Z Z Z Z Z

>  <atom.prop.IS_HEAVY_ATOM>  (1878) 
1 0 0 0 1 0 0 1 0 0 0 1 0 0 0 1 1 0 0 0

>  <DIFUSE_FUNC_ATOM>  (1878) 
n/a

>  <FINAL_SINGLE_POINT_ENERGY>  (1878) 
0

>  <NONCOV_INTER_ENERGY_QM>  (1878) 
0

>  <FF_Energy>  (1878) 
-4.08

>  <QM_Energy>  (1878) 
-9.84

>  <source>  (1878) 
ETAM_MSM

>  <Index>  (1878) 
12014

$$$$
ETAM-pdb5xfr-A-LYS-284:MSM-pdb5xfr-A-MET-332
     RDKit          3D

 20 18  0  0  0  0  0  0  0  0999 V2000
    1.2407    0.8723    0.0000 C   0  0  0  0  0  0  0  0  0  0  0  0
    1.1996    1.4835    0.7859 H   0  0  0  0  0  0  0  0  0  0  0  0
    1.2578    1.4017   -0.8445 H   0  0  0  0  0  0  0  0  0  0  0  0
    2.1523    0.2782    0.0632 H   0  0  0  0  0  0  0  0  0  0  0  0
    0.0000    0.0000    0.0000 C   0  0  0  0  0  0  0  0  0  0  0  0
    0.0076   -0.5795   -0.8161 H   0  0  0  0  0  0  0  0  0  0  0  0
    0.0070   -0.5796    0.8164 H   0  0  0  0  0  0  0  0  0  0  0  0
   -1.2407    0.8258   -0.0000 N   0  0  0  0  0  4  0  0  0  0  0  0
   -1.7510    0.6560   -0.8427 H   0  0  0  0  0  0  0  0  0  0  0  0
   -1.8023    0.5786    0.7884 H   0  0  0  0  0  0  0  0  0  0  0  0
   -0.9936    1.7929    0.0536 H   0  0  0  0  0  0  0  0  0  0  0  0
   -2.9863   -3.0562   -2.0406 C   0  0  0  0  0  0  0  0  0  0  0  0
   -2.5368   -2.9847   -2.9519 H   0  0  0  0  0  0  0  0  0  0  0  0
   -3.9064   -3.4620   -2.2030 H   0  0  0  0  0  0  0  0  0  0  0  0
   -2.4062   -3.7311   -1.4112 H   0  0  0  0  0  0  0  0  0  0  0  0
   -3.1359   -1.4303   -1.2764 S   0  0  0  0  0  0  0  0  0  0  0  0
   -4.0941   -0.5589   -2.5149 C   0  0  0  0  0  0  0  0  0  0  0  0
   -4.5711    0.2113   -2.0888 H   0  0  0  0  0  0  0  0  0  0  0  0
   -3.4844   -0.2167   -3.2313 H   0  0  0  0  0  0  0  0  0  0  0  0
   -4.7646   -1.1823   -2.9200 H   0  0  0  0  0  0  0  0  0  0  0  0
  1  5  1  0
  5  8  1  0
  1  2  1  0
  1  3  1  0
  1  4  1  0
  5  6  1  0
  5  7  1  0
  8  9  1  0
  8 10  1  0
  8 11  1  0
 12 16  1  0
 16 17  1  0
 12 13  1  0
 12 14  1  0
 12 15  1  0
 17 18  1  0
 17 19  1  0
 17 20  1  0
M  CHG  1   8   1
M  END
>  <PDB_ID>  (1879) 
pdb5xfr

>  <RESIDUE_NAME>  (1879) 
LYS   MET

>  <FRAG_NAME>  (1879) 
ETAM   MSM

>  <FRAG_ATOM_NUM>  (1879) 
fragi: 11  fragj: 9

>  <atom.prop.CHAIN_ID>  (1879) 
A A A A A A A A A A A Z Z Z Z Z Z Z Z Z

>  <atom.prop.IS_HEAVY_ATOM>  (1879) 
1 0 0 0 1 0 0 1 0 0 0 1 0 0 0 1 1 0 0 0

>  <DIFUSE_FUNC_ATOM>  (1879) 
n/a

>  <FINAL_SINGLE_POINT_ENERGY>  (1879) 
0

>  <NONCOV_INTER_ENERGY_QM>  (1879) 
0

>  <FF_Energy>  (1879) 
-5.23

>  <QM_Energy>  (1879) 
-13.92

>  <source>  (1879) 
ETAM_MSM

>  <Index>  (1879) 
12030

$$$$
ETAM-pdb5xio-B-LYS-499:MSM-pdb5xio-B-MET-591
     RDKit          3D

 20 18  0  0  0  0  0  0  0  0999 V2000
    1.2448    0.8777   -0.0000 C   0  0  0  0  0  0  0  0  0  0  0  0
    0.9611    1.8305   -0.0834 H   0  0  0  0  0  0  0  0  0  0  0  0
    1.8123    0.6237   -0.7804 H   0  0  0  0  0  0  0  0  0  0  0  0
    1.8318    0.7660    0.9117 H   0  0  0  0  0  0  0  0  0  0  0  0
    0.0000    0.0000    0.0000 C   0  0  0  0  0  0  0  0  0  0  0  0
    0.0175   -0.5848   -0.8159 H   0  0  0  0  0  0  0  0  0  0  0  0
    0.0172   -0.5844    0.8159 H   0  0  0  0  0  0  0  0  0  0  0  0
   -1.2448    0.8060    0.0000 N   0  0  0  0  0  4  0  0  0  0  0  0
   -1.4964    1.0323    0.9411 H   0  0  0  0  0  0  0  0  0  0  0  0
   -1.0970    1.6494   -0.5169 H   0  0  0  0  0  0  0  0  0  0  0  0
   -1.9826    0.2810   -0.4244 H   0  0  0  0  0  0  0  0  0  0  0  0
   -4.6754    1.1862   -0.6788 C   0  0  0  0  0  0  0  0  0  0  0  0
   -4.5918    1.6843    0.2016 H   0  0  0  0  0  0  0  0  0  0  0  0
   -4.5125    0.2034   -0.4810 H   0  0  0  0  0  0  0  0  0  0  0  0
   -5.6871    1.3108   -1.0648 H   0  0  0  0  0  0  0  0  0  0  0  0
   -3.4642    1.8010   -1.8732 S   0  0  0  0  0  0  0  0  0  0  0  0
   -3.8249    0.7579   -3.3021 C   0  0  0  0  0  0  0  0  0  0  0  0
   -4.6479    1.0953   -3.7564 H   0  0  0  0  0  0  0  0  0  0  0  0
   -3.0531    0.7895   -3.9351 H   0  0  0  0  0  0  0  0  0  0  0  0
   -3.9711   -0.1816   -2.9949 H   0  0  0  0  0  0  0  0  0  0  0  0
  1  5  1  0
  5  8  1  0
  1  2  1  0
  1  3  1  0
  1  4  1  0
  5  6  1  0
  5  7  1  0
  8  9  1  0
  8 10  1  0
  8 11  1  0
 12 16  1  0
 16 17  1  0
 12 13  1  0
 12 14  1  0
 12 15  1  0
 17 18  1  0
 17 19  1  0
 17 20  1  0
M  CHG  1   8   1
M  END
>  <PDB_ID>  (1880) 
pdb5xio

>  <RESIDUE_NAME>  (1880) 
LYS   MET

>  <FRAG_NAME>  (1880) 
ETAM   MSM

>  <FRAG_ATOM_NUM>  (1880) 
fragi: 11  fragj: 9

>  <atom.prop.CHAIN_ID>  (1880) 
A A A A A A A A A A A Z Z Z Z Z Z Z Z Z

>  <atom.prop.IS_HEAVY_ATOM>  (1880) 
1 0 0 0 1 0 0 1 0 0 0 1 0 0 0 1 1 0 0 0

>  <DIFUSE_FUNC_ATOM>  (1880) 
n/a

>  <FINAL_SINGLE_POINT_ENERGY>  (1880) 
0

>  <NONCOV_INTER_ENERGY_QM>  (1880) 
0

>  <FF_Energy>  (1880) 
-3.36

>  <QM_Energy>  (1880) 
-11.5

>  <source>  (1880) 
ETAM_MSM

>  <Index>  (1880) 
12040

$$$$
ETAM-pdb5xfr-B-LYS-284:MSM-pdb5xfr-B-MET-332
     RDKit          3D

 20 18  0  0  0  0  0  0  0  0999 V2000
    1.2357    0.8759   -0.0000 C   0  0  0  0  0  0  0  0  0  0  0  0
    1.2197    1.4495    0.8140 H   0  0  0  0  0  0  0  0  0  0  0  0
    1.2252    1.4424   -0.8188 H   0  0  0  0  0  0  0  0  0  0  0  0
    2.1484    0.2800    0.0061 H   0  0  0  0  0  0  0  0  0  0  0  0
    0.0000    0.0000    0.0000 C   0  0  0  0  0  0  0  0  0  0  0  0
    0.0100   -0.5798   -0.8167 H   0  0  0  0  0  0  0  0  0  0  0  0
    0.0099   -0.5797    0.8166 H   0  0  0  0  0  0  0  0  0  0  0  0
   -1.2357    0.8238    0.0000 N   0  0  0  0  0  4  0  0  0  0  0  0
   -1.1861    1.4987   -0.7356 H   0  0  0  0  0  0  0  0  0  0  0  0
   -2.0296    0.2328   -0.1426 H   0  0  0  0  0  0  0  0  0  0  0  0
   -1.3228    1.2935    0.8792 H   0  0  0  0  0  0  0  0  0  0  0  0
   -3.2979   -2.5524   -2.0161 C   0  0  0  0  0  0  0  0  0  0  0  0
   -4.0898   -2.7455   -2.6513 H   0  0  0  0  0  0  0  0  0  0  0  0
   -3.4748   -3.1569   -1.1960 H   0  0  0  0  0  0  0  0  0  0  0  0
   -2.3788   -2.8839   -2.4995 H   0  0  0  0  0  0  0  0  0  0  0  0
   -3.2886   -0.8163   -1.5287 S   0  0  0  0  0  0  0  0  0  0  0  0
   -3.8214   -0.0329   -3.0482 C   0  0  0  0  0  0  0  0  0  0  0  0
   -4.2478    0.8489   -2.8398 H   0  0  0  0  0  0  0  0  0  0  0  0
   -3.0318    0.1137   -3.6457 H   0  0  0  0  0  0  0  0  0  0  0  0
   -4.4849   -0.6196   -3.5140 H   0  0  0  0  0  0  0  0  0  0  0  0
  1  5  1  0
  5  8  1  0
  1  2  1  0
  1  3  1  0
  1  4  1  0
  5  6  1  0
  5  7  1  0
  8  9  1  0
  8 10  1  0
  8 11  1  0
 12 16  1  0
 16 17  1  0
 12 13  1  0
 12 14  1  0
 12 15  1  0
 17 18  1  0
 17 19  1  0
 17 20  1  0
M  CHG  1   8   1
M  END
>  <PDB_ID>  (1881) 
pdb5xfr

>  <RESIDUE_NAME>  (1881) 
LYS   MET

>  <FRAG_NAME>  (1881) 
ETAM   MSM

>  <FRAG_ATOM_NUM>  (1881) 
fragi: 11  fragj: 9

>  <atom.prop.CHAIN_ID>  (1881) 
A A A A A A A A A A A Z Z Z Z Z Z Z Z Z

>  <atom.prop.IS_HEAVY_ATOM>  (1881) 
1 0 0 0 1 0 0 1 0 0 0 1 0 0 0 1 1 0 0 0

>  <DIFUSE_FUNC_ATOM>  (1881) 
n/a

>  <FINAL_SINGLE_POINT_ENERGY>  (1881) 
0

>  <NONCOV_INTER_ENERGY_QM>  (1881) 
0

>  <FF_Energy>  (1881) 
-4.49

>  <QM_Energy>  (1881) 
-14.28

>  <source>  (1881) 
ETAM_MSM

>  <Index>  (1881) 
12043

$$$$
ETAM-pdb5xoh-A-LYS-184:MSM-pdb5xoh-A-MET-212
     RDKit          3D

 20 18  0  0  0  0  0  0  0  0999 V2000
    1.2643    0.8586   -0.0000 C   0  0  0  0  0  0  0  0  0  0  0  0
    1.2918    1.3838   -0.8448 H   0  0  0  0  0  0  0  0  0  0  0  0
    2.0561    0.2596    0.0601 H   0  0  0  0  0  0  0  0  0  0  0  0
    1.2904    1.5527    0.8400 H   0  0  0  0  0  0  0  0  0  0  0  0
    0.0000    0.0000    0.0000 C   0  0  0  0  0  0  0  0  0  0  0  0
    0.0085   -0.5902   -0.8158 H   0  0  0  0  0  0  0  0  0  0  0  0
    0.0084   -0.5900    0.8164 H   0  0  0  0  0  0  0  0  0  0  0  0
   -1.2643    0.8095   -0.0000 N   0  0  0  0  0  4  0  0  0  0  0  0
   -1.3520    1.2748   -0.8778 H   0  0  0  0  0  0  0  0  0  0  0  0
   -2.0411    0.1997    0.1408 H   0  0  0  0  0  0  0  0  0  0  0  0
   -1.2211    1.4797    0.7370 H   0  0  0  0  0  0  0  0  0  0  0  0
   -1.0657    6.1022    0.2158 C   0  0  0  0  0  0  0  0  0  0  0  0
   -0.0524    6.1931    0.3680 H   0  0  0  0  0  0  0  0  0  0  0  0
   -1.4935    6.3422    1.1200 H   0  0  0  0  0  0  0  0  0  0  0  0
   -1.3691    6.8509   -0.5160 H   0  0  0  0  0  0  0  0  0  0  0  0
   -1.4896    4.4061   -0.2595 S   0  0  0  0  0  0  0  0  0  0  0  0
   -1.3137    4.5428   -2.0466 C   0  0  0  0  0  0  0  0  0  0  0  0
   -2.2059    4.4138   -2.4781 H   0  0  0  0  0  0  0  0  0  0  0  0
   -0.9578    5.4489   -2.2758 H   0  0  0  0  0  0  0  0  0  0  0  0
   -0.6797    3.8417   -2.3708 H   0  0  0  0  0  0  0  0  0  0  0  0
  1  5  1  0
  5  8  1  0
  1  2  1  0
  1  3  1  0
  1  4  1  0
  5  6  1  0
  5  7  1  0
  8  9  1  0
  8 10  1  0
  8 11  1  0
 12 16  1  0
 16 17  1  0
 12 13  1  0
 12 14  1  0
 12 15  1  0
 17 18  1  0
 17 19  1  0
 17 20  1  0
M  CHG  1   8   1
M  END
>  <PDB_ID>  (1882) 
pdb5xoh

>  <RESIDUE_NAME>  (1882) 
LYS   MET

>  <FRAG_NAME>  (1882) 
ETAM   MSM

>  <FRAG_ATOM_NUM>  (1882) 
fragi: 11  fragj: 9

>  <atom.prop.CHAIN_ID>  (1882) 
A A A A A A A A A A A Z Z Z Z Z Z Z Z Z

>  <atom.prop.IS_HEAVY_ATOM>  (1882) 
1 0 0 0 1 0 0 1 0 0 0 1 0 0 0 1 1 0 0 0

>  <DIFUSE_FUNC_ATOM>  (1882) 
n/a

>  <FINAL_SINGLE_POINT_ENERGY>  (1882) 
0

>  <NONCOV_INTER_ENERGY_QM>  (1882) 
0

>  <FF_Energy>  (1882) 
-5.05

>  <QM_Energy>  (1882) 
-10.09

>  <source>  (1882) 
ETAM_MSM

>  <Index>  (1882) 
12051

$$$$
ETAM-pdb5xpc-C-LYS-74:MSM-pdb5xpc-C-MET-70
     RDKit          3D

 20 18  0  0  0  0  0  0  0  0999 V2000
    1.2502    0.8770   -0.0000 C   0  0  0  0  0  0  0  0  0  0  0  0
    1.3483    1.2906    0.8949 H   0  0  0  0  0  0  0  0  0  0  0  0
    1.1536    1.5669   -0.7030 H   0  0  0  0  0  0  0  0  0  0  0  0
    2.1413    0.2854   -0.2101 H   0  0  0  0  0  0  0  0  0  0  0  0
    0.0000    0.0000    0.0000 C   0  0  0  0  0  0  0  0  0  0  0  0
    0.0115   -0.5799   -0.8159 H   0  0  0  0  0  0  0  0  0  0  0  0
    0.0119   -0.5805    0.8163 H   0  0  0  0  0  0  0  0  0  0  0  0
   -1.2502    0.8202    0.0000 N   0  0  0  0  0  4  0  0  0  0  0  0
   -1.0431    1.7336   -0.3459 H   0  0  0  0  0  0  0  0  0  0  0  0
   -1.9294    0.3828   -0.5870 H   0  0  0  0  0  0  0  0  0  0  0  0
   -1.6010    0.8838    0.9329 H   0  0  0  0  0  0  0  0  0  0  0  0
    0.6692   -1.2293    3.5159 C   0  0  0  0  0  0  0  0  0  0  0  0
    1.1264   -0.3546    3.2297 H   0  0  0  0  0  0  0  0  0  0  0  0
    0.9065   -1.9095    2.7832 H   0  0  0  0  0  0  0  0  0  0  0  0
    1.1192   -1.5613    4.4515 H   0  0  0  0  0  0  0  0  0  0  0  0
   -1.1170   -1.0093    3.6288 S   0  0  0  0  0  0  0  0  0  0  0  0
   -1.6605   -2.7208    3.6845 C   0  0  0  0  0  0  0  0  0  0  0  0
   -1.1669   -3.2032    4.4086 H   0  0  0  0  0  0  0  0  0  0  0  0
   -2.6425   -2.7526    3.8722 H   0  0  0  0  0  0  0  0  0  0  0  0
   -1.4748   -3.1583    2.8047 H   0  0  0  0  0  0  0  0  0  0  0  0
  1  5  1  0
  5  8  1  0
  1  2  1  0
  1  3  1  0
  1  4  1  0
  5  6  1  0
  5  7  1  0
  8  9  1  0
  8 10  1  0
  8 11  1  0
 12 16  1  0
 16 17  1  0
 12 13  1  0
 12 14  1  0
 12 15  1  0
 17 18  1  0
 17 19  1  0
 17 20  1  0
M  CHG  1   8   1
M  END
>  <PDB_ID>  (1883) 
pdb5xpc

>  <RESIDUE_NAME>  (1883) 
LYS   MET

>  <FRAG_NAME>  (1883) 
ETAM   MSM

>  <FRAG_ATOM_NUM>  (1883) 
fragi: 11  fragj: 9

>  <atom.prop.CHAIN_ID>  (1883) 
A A A A A A A A A A A Z Z Z Z Z Z Z Z Z

>  <atom.prop.IS_HEAVY_ATOM>  (1883) 
1 0 0 0 1 0 0 1 0 0 0 1 0 0 0 1 1 0 0 0

>  <DIFUSE_FUNC_ATOM>  (1883) 
n/a

>  <FINAL_SINGLE_POINT_ENERGY>  (1883) 
0

>  <NONCOV_INTER_ENERGY_QM>  (1883) 
0

>  <FF_Energy>  (1883) 
-3.96

>  <QM_Energy>  (1883) 
-9.91

>  <source>  (1883) 
ETAM_MSM

>  <Index>  (1883) 
12063

$$$$
ETAM-pdb5xpc-D-LYS-74:MSM-pdb5xpc-D-MET-70
     RDKit          3D

 20 18  0  0  0  0  0  0  0  0999 V2000
    1.2375    0.8736    0.0000 C   0  0  0  0  0  0  0  0  0  0  0  0
    1.2940    1.3436    0.8770 H   0  0  0  0  0  0  0  0  0  0  0  0
    1.1584    1.5362   -0.7395 H   0  0  0  0  0  0  0  0  0  0  0  0
    2.1416    0.2825   -0.1463 H   0  0  0  0  0  0  0  0  0  0  0  0
    0.0000    0.0000    0.0000 C   0  0  0  0  0  0  0  0  0  0  0  0
    0.0017   -0.5740   -0.8158 H   0  0  0  0  0  0  0  0  0  0  0  0
    0.0013   -0.5742    0.8166 H   0  0  0  0  0  0  0  0  0  0  0  0
   -1.2375    0.8422   -0.0000 N   0  0  0  0  0  4  0  0  0  0  0  0
   -1.7060    0.7356    0.8749 H   0  0  0  0  0  0  0  0  0  0  0  0
   -0.9822    1.7981   -0.1328 H   0  0  0  0  0  0  0  0  0  0  0  0
   -1.8357    0.5455   -0.7421 H   0  0  0  0  0  0  0  0  0  0  0  0
    0.4773   -1.8791    3.0069 C   0  0  0  0  0  0  0  0  0  0  0  0
    0.9753   -0.9816    2.9116 H   0  0  0  0  0  0  0  0  0  0  0  0
    0.7131   -2.4029    2.1511 H   0  0  0  0  0  0  0  0  0  0  0  0
    0.9089   -2.4116    3.8543 H   0  0  0  0  0  0  0  0  0  0  0  0
   -1.3044   -1.6170    3.1315 S   0  0  0  0  0  0  0  0  0  0  0  0
   -1.8795   -3.3064    2.9409 C   0  0  0  0  0  0  0  0  0  0  0  0
   -2.5362   -3.3527    2.1874 H   0  0  0  0  0  0  0  0  0  0  0  0
   -1.1012   -3.9038    2.7418 H   0  0  0  0  0  0  0  0  0  0  0  0
   -2.3218   -3.6060    3.7872 H   0  0  0  0  0  0  0  0  0  0  0  0
  1  5  1  0
  5  8  1  0
  1  2  1  0
  1  3  1  0
  1  4  1  0
  5  6  1  0
  5  7  1  0
  8  9  1  0
  8 10  1  0
  8 11  1  0
 12 16  1  0
 16 17  1  0
 12 13  1  0
 12 14  1  0
 12 15  1  0
 17 18  1  0
 17 19  1  0
 17 20  1  0
M  CHG  1   8   1
M  END
>  <PDB_ID>  (1884) 
pdb5xpc

>  <RESIDUE_NAME>  (1884) 
LYS   MET

>  <FRAG_NAME>  (1884) 
ETAM   MSM

>  <FRAG_ATOM_NUM>  (1884) 
fragi: 11  fragj: 9

>  <atom.prop.CHAIN_ID>  (1884) 
A A A A A A A A A A A Z Z Z Z Z Z Z Z Z

>  <atom.prop.IS_HEAVY_ATOM>  (1884) 
1 0 0 0 1 0 0 1 0 0 0 1 0 0 0 1 1 0 0 0

>  <DIFUSE_FUNC_ATOM>  (1884) 
n/a

>  <FINAL_SINGLE_POINT_ENERGY>  (1884) 
0

>  <NONCOV_INTER_ENERGY_QM>  (1884) 
0

>  <FF_Energy>  (1884) 
-3.14

>  <QM_Energy>  (1884) 
-9.88

>  <source>  (1884) 
ETAM_MSM

>  <Index>  (1884) 
12065

$$$$
ETAM-pdb5xpc-E-LYS-74:MSM-pdb5xpc-E-MET-70
     RDKit          3D

 20 18  0  0  0  0  0  0  0  0999 V2000
    1.2513    0.8826    0.0000 C   0  0  0  0  0  0  0  0  0  0  0  0
    1.2841    1.3853    0.8545 H   0  0  0  0  0  0  0  0  0  0  0  0
    1.2007    1.5035   -0.7723 H   0  0  0  0  0  0  0  0  0  0  0  0
    2.1604    0.2878   -0.0886 H   0  0  0  0  0  0  0  0  0  0  0  0
    0.0000    0.0000    0.0000 C   0  0  0  0  0  0  0  0  0  0  0  0
    0.0060   -0.5723   -0.8164 H   0  0  0  0  0  0  0  0  0  0  0  0
    0.0058   -0.5721    0.8163 H   0  0  0  0  0  0  0  0  0  0  0  0
   -1.2513    0.8400   -0.0000 N   0  0  0  0  0  4  0  0  0  0  0  0
   -1.0118    1.7742   -0.2510 H   0  0  0  0  0  0  0  0  0  0  0  0
   -1.8931    0.4621   -0.6626 H   0  0  0  0  0  0  0  0  0  0  0  0
   -1.6517    0.8224    0.9124 H   0  0  0  0  0  0  0  0  0  0  0  0
    0.5912   -0.6620    3.7971 C   0  0  0  0  0  0  0  0  0  0  0  0
    1.0266    0.1983    3.4424 H   0  0  0  0  0  0  0  0  0  0  0  0
    0.8967   -1.4036    3.1552 H   0  0  0  0  0  0  0  0  0  0  0  0
    1.0259   -0.8719    4.7744 H   0  0  0  0  0  0  0  0  0  0  0  0
   -1.2085   -0.5203    3.8194 S   0  0  0  0  0  0  0  0  0  0  0  0
   -1.7370   -2.1964    4.1427 C   0  0  0  0  0  0  0  0  0  0  0  0
   -1.2003   -2.5806    4.8963 H   0  0  0  0  0  0  0  0  0  0  0  0
   -2.7076   -2.2030    4.3914 H   0  0  0  0  0  0  0  0  0  0  0  0
   -1.6028   -2.7577    3.3233 H   0  0  0  0  0  0  0  0  0  0  0  0
  1  5  1  0
  5  8  1  0
  1  2  1  0
  1  3  1  0
  1  4  1  0
  5  6  1  0
  5  7  1  0
  8  9  1  0
  8 10  1  0
  8 11  1  0
 12 16  1  0
 16 17  1  0
 12 13  1  0
 12 14  1  0
 12 15  1  0
 17 18  1  0
 17 19  1  0
 17 20  1  0
M  CHG  1   8   1
M  END
>  <PDB_ID>  (1885) 
pdb5xpc

>  <RESIDUE_NAME>  (1885) 
LYS   MET

>  <FRAG_NAME>  (1885) 
ETAM   MSM

>  <FRAG_ATOM_NUM>  (1885) 
fragi: 11  fragj: 9

>  <atom.prop.CHAIN_ID>  (1885) 
A A A A A A A A A A A Z Z Z Z Z Z Z Z Z

>  <atom.prop.IS_HEAVY_ATOM>  (1885) 
1 0 0 0 1 0 0 1 0 0 0 1 0 0 0 1 1 0 0 0

>  <DIFUSE_FUNC_ATOM>  (1885) 
n/a

>  <FINAL_SINGLE_POINT_ENERGY>  (1885) 
0

>  <NONCOV_INTER_ENERGY_QM>  (1885) 
0

>  <FF_Energy>  (1885) 
-4.21

>  <QM_Energy>  (1885) 
-10.44

>  <source>  (1885) 
ETAM_MSM

>  <Index>  (1885) 
12068

$$$$
ETAM-pdb5xux-D-LYS-144:MSM-pdb5xux-D-MET-148
     RDKit          3D

 20 18  0  0  0  0  0  0  0  0999 V2000
    1.2472    0.8696   -0.0000 C   0  0  0  0  0  0  0  0  0  0  0  0
    1.3557    1.2681    0.9182 H   0  0  0  0  0  0  0  0  0  0  0  0
    1.1109    1.6195   -0.6582 H   0  0  0  0  0  0  0  0  0  0  0  0
    2.1638    0.3398   -0.2596 H   0  0  0  0  0  0  0  0  0  0  0  0
    0.0000    0.0000    0.0000 C   0  0  0  0  0  0  0  0  0  0  0  0
    0.0059   -0.5803   -0.8164 H   0  0  0  0  0  0  0  0  0  0  0  0
    0.0058   -0.5800    0.8160 H   0  0  0  0  0  0  0  0  0  0  0  0
   -1.2472    0.8275    0.0000 N   0  0  0  0  0  4  0  0  0  0  0  0
   -1.2167    1.4661    0.7668 H   0  0  0  0  0  0  0  0  0  0  0  0
   -1.3041    1.3330   -0.8589 H   0  0  0  0  0  0  0  0  0  0  0  0
   -2.0384    0.2262    0.0921 H   0  0  0  0  0  0  0  0  0  0  0  0
   -1.8530   -3.4762    1.9690 C   0  0  0  0  0  0  0  0  0  0  0  0
   -2.2899   -3.4644    2.8826 H   0  0  0  0  0  0  0  0  0  0  0  0
   -0.8628   -3.3094    2.1039 H   0  0  0  0  0  0  0  0  0  0  0  0
   -1.9926   -4.4595    1.5199 H   0  0  0  0  0  0  0  0  0  0  0  0
   -2.5715   -2.2096    0.9025 S   0  0  0  0  0  0  0  0  0  0  0  0
   -4.3180   -2.6367    0.9096 C   0  0  0  0  0  0  0  0  0  0  0  0
   -4.6659   -2.6277   -0.0276 H   0  0  0  0  0  0  0  0  0  0  0  0
   -4.4352   -3.5497    1.3013 H   0  0  0  0  0  0  0  0  0  0  0  0
   -4.8213   -1.9697    1.4597 H   0  0  0  0  0  0  0  0  0  0  0  0
  1  5  1  0
  5  8  1  0
  1  2  1  0
  1  3  1  0
  1  4  1  0
  5  6  1  0
  5  7  1  0
  8  9  1  0
  8 10  1  0
  8 11  1  0
 12 16  1  0
 16 17  1  0
 12 13  1  0
 12 14  1  0
 12 15  1  0
 17 18  1  0
 17 19  1  0
 17 20  1  0
M  CHG  1   8   1
M  END
>  <PDB_ID>  (1886) 
pdb5xux

>  <RESIDUE_NAME>  (1886) 
LYS   MET

>  <FRAG_NAME>  (1886) 
ETAM   MSM

>  <FRAG_ATOM_NUM>  (1886) 
fragi: 11  fragj: 9

>  <atom.prop.CHAIN_ID>  (1886) 
A A A A A A A A A A A Z Z Z Z Z Z Z Z Z

>  <atom.prop.IS_HEAVY_ATOM>  (1886) 
1 0 0 0 1 0 0 1 0 0 0 1 0 0 0 1 1 0 0 0

>  <DIFUSE_FUNC_ATOM>  (1886) 
n/a

>  <FINAL_SINGLE_POINT_ENERGY>  (1886) 
0

>  <NONCOV_INTER_ENERGY_QM>  (1886) 
0

>  <FF_Energy>  (1886) 
-5.68

>  <QM_Energy>  (1886) 
-14.27

>  <source>  (1886) 
ETAM_MSM

>  <Index>  (1886) 
12076

$$$$
ETAM-pdb5xwb-A-LYS-283:MSM-pdb5xwb-A-MET-307
     RDKit          3D

 20 18  0  0  0  0  0  0  0  0999 V2000
    1.2824    0.8509    0.0000 C   0  0  0  0  0  0  0  0  0  0  0  0
    1.6837    0.8137    0.9149 H   0  0  0  0  0  0  0  0  0  0  0  0
    1.0324    1.7940   -0.2177 H   0  0  0  0  0  0  0  0  0  0  0  0
    2.0288    0.5137   -0.7192 H   0  0  0  0  0  0  0  0  0  0  0  0
    0.0000    0.0000    0.0000 C   0  0  0  0  0  0  0  0  0  0  0  0
    0.0138   -0.6002   -0.8167 H   0  0  0  0  0  0  0  0  0  0  0  0
    0.0135   -0.6009    0.8161 H   0  0  0  0  0  0  0  0  0  0  0  0
   -1.2824    0.7859    0.0000 N   0  0  0  0  0  4  0  0  0  0  0  0
   -1.0697    1.7531    0.1157 H   0  0  0  0  0  0  0  0  0  0  0  0
   -1.7502    0.6414   -0.8683 H   0  0  0  0  0  0  0  0  0  0  0  0
   -1.8553    0.4702    0.7527 H   0  0  0  0  0  0  0  0  0  0  0  0
   -2.8535   -1.7459   -1.7863 C   0  0  0  0  0  0  0  0  0  0  0  0
   -3.0923   -0.8567   -1.4042 H   0  0  0  0  0  0  0  0  0  0  0  0
   -2.6382   -2.3852   -1.0519 H   0  0  0  0  0  0  0  0  0  0  0  0
   -3.6713   -2.1284   -2.3970 H   0  0  0  0  0  0  0  0  0  0  0  0
   -1.4178   -1.5763   -2.9018 S   0  0  0  0  0  0  0  0  0  0  0  0
   -1.9439   -0.3781   -4.1326 C   0  0  0  0  0  0  0  0  0  0  0  0
   -1.5760    0.5227   -3.8994 H   0  0  0  0  0  0  0  0  0  0  0  0
   -1.6048   -0.6545   -5.0320 H   0  0  0  0  0  0  0  0  0  0  0  0
   -2.9434   -0.3364   -4.1510 H   0  0  0  0  0  0  0  0  0  0  0  0
  1  5  1  0
  5  8  1  0
  1  2  1  0
  1  3  1  0
  1  4  1  0
  5  6  1  0
  5  7  1  0
  8  9  1  0
  8 10  1  0
  8 11  1  0
 12 16  1  0
 16 17  1  0
 12 13  1  0
 12 14  1  0
 12 15  1  0
 17 18  1  0
 17 19  1  0
 17 20  1  0
M  CHG  1   8   1
M  END
>  <PDB_ID>  (1887) 
pdb5xwb

>  <RESIDUE_NAME>  (1887) 
LYS   MET

>  <FRAG_NAME>  (1887) 
ETAM   MSM

>  <FRAG_ATOM_NUM>  (1887) 
fragi: 11  fragj: 9

>  <atom.prop.CHAIN_ID>  (1887) 
A A A A A A A A A A A Z Z Z Z Z Z Z Z Z

>  <atom.prop.IS_HEAVY_ATOM>  (1887) 
1 0 0 0 1 0 0 1 0 0 0 1 0 0 0 1 1 0 0 0

>  <DIFUSE_FUNC_ATOM>  (1887) 
n/a

>  <FINAL_SINGLE_POINT_ENERGY>  (1887) 
0

>  <NONCOV_INTER_ENERGY_QM>  (1887) 
0

>  <FF_Energy>  (1887) 
-2.19

>  <QM_Energy>  (1887) 
-7.58

>  <source>  (1887) 
ETAM_MSM

>  <Index>  (1887) 
12078

$$$$
ETAM-pdb5y3t-A-LYS-7:MSM-pdb5y3t-A-MET-11
     RDKit          3D

 20 18  0  0  0  0  0  0  0  0999 V2000
    1.2369    0.8804   -0.0000 C   0  0  0  0  0  0  0  0  0  0  0  0
    1.2911    1.3525    0.8681 H   0  0  0  0  0  0  0  0  0  0  0  0
    1.1714    1.5197   -0.7523 H   0  0  0  0  0  0  0  0  0  0  0  0
    2.1312    0.2705   -0.1279 H   0  0  0  0  0  0  0  0  0  0  0  0
    0.0000    0.0000    0.0000 C   0  0  0  0  0  0  0  0  0  0  0  0
    0.0135   -0.5795   -0.8159 H   0  0  0  0  0  0  0  0  0  0  0  0
    0.0126   -0.5792    0.8168 H   0  0  0  0  0  0  0  0  0  0  0  0
   -1.2369    0.8198    0.0000 N   0  0  0  0  0  4  0  0  0  0  0  0
   -1.6121    0.8589   -0.9267 H   0  0  0  0  0  0  0  0  0  0  0  0
   -1.9099    0.4084    0.6147 H   0  0  0  0  0  0  0  0  0  0  0  0
   -1.0237    1.7460    0.3126 H   0  0  0  0  0  0  0  0  0  0  0  0
    0.4398   -0.6527    3.8975 C   0  0  0  0  0  0  0  0  0  0  0  0
    1.0765    0.0193    3.4470 H   0  0  0  0  0  0  0  0  0  0  0  0
    0.6701   -1.5619    3.4705 H   0  0  0  0  0  0  0  0  0  0  0  0
    0.6804   -0.6981    4.9596 H   0  0  0  0  0  0  0  0  0  0  0  0
   -1.2778   -0.2157    3.5717 S   0  0  0  0  0  0  0  0  0  0  0  0
   -1.9424   -1.8660    3.6152 C   0  0  0  0  0  0  0  0  0  0  0  0
   -1.5065   -2.3903    4.3508 H   0  0  0  0  0  0  0  0  0  0  0  0
   -2.9313   -1.8320    3.7799 H   0  0  0  0  0  0  0  0  0  0  0  0
   -1.7720   -2.3258    2.7403 H   0  0  0  0  0  0  0  0  0  0  0  0
  1  5  1  0
  5  8  1  0
  1  2  1  0
  1  3  1  0
  1  4  1  0
  5  6  1  0
  5  7  1  0
  8  9  1  0
  8 10  1  0
  8 11  1  0
 12 16  1  0
 16 17  1  0
 12 13  1  0
 12 14  1  0
 12 15  1  0
 17 18  1  0
 17 19  1  0
 17 20  1  0
M  CHG  1   8   1
M  END
>  <PDB_ID>  (1888) 
pdb5y3t

>  <RESIDUE_NAME>  (1888) 
LYS   MET

>  <FRAG_NAME>  (1888) 
ETAM   MSM

>  <FRAG_ATOM_NUM>  (1888) 
fragi: 11  fragj: 9

>  <atom.prop.CHAIN_ID>  (1888) 
A A A A A A A A A A A Z Z Z Z Z Z Z Z Z

>  <atom.prop.IS_HEAVY_ATOM>  (1888) 
1 0 0 0 1 0 0 1 0 0 0 1 0 0 0 1 1 0 0 0

>  <DIFUSE_FUNC_ATOM>  (1888) 
n/a

>  <FINAL_SINGLE_POINT_ENERGY>  (1888) 
0

>  <NONCOV_INTER_ENERGY_QM>  (1888) 
0

>  <FF_Energy>  (1888) 
-4.86

>  <QM_Energy>  (1888) 
-11.71

>  <source>  (1888) 
ETAM_MSM

>  <Index>  (1888) 
12094

$$$$
ETAM-pdb5y9p-A-LYS-54:MSM-pdb5y9p-A-MET-58
     RDKit          3D

 20 18  0  0  0  0  0  0  0  0999 V2000
    1.2363    0.8910    0.0000 C   0  0  0  0  0  0  0  0  0  0  0  0
    1.2054    1.4674    0.8174 H   0  0  0  0  0  0  0  0  0  0  0  0
    1.2052    1.4684   -0.8167 H   0  0  0  0  0  0  0  0  0  0  0  0
    2.1631    0.3173   -0.0001 H   0  0  0  0  0  0  0  0  0  0  0  0
    0.0000    0.0000    0.0000 C   0  0  0  0  0  0  0  0  0  0  0  0
    0.0172   -0.5746   -0.8174 H   0  0  0  0  0  0  0  0  0  0  0  0
    0.0172   -0.5761    0.8154 H   0  0  0  0  0  0  0  0  0  0  0  0
   -1.2363    0.8217   -0.0000 N   0  0  0  0  0  4  0  0  0  0  0  0
   -1.2685    1.3746    0.8327 H   0  0  0  0  0  0  0  0  0  0  0  0
   -1.2376    1.4227   -0.7995 H   0  0  0  0  0  0  0  0  0  0  0  0
   -2.0351    0.2210   -0.0331 H   0  0  0  0  0  0  0  0  0  0  0  0
   -0.0552   -0.9466    3.8057 C   0  0  0  0  0  0  0  0  0  0  0  0
   -0.9979   -0.7298    4.1299 H   0  0  0  0  0  0  0  0  0  0  0  0
    0.3371   -0.0698    3.4611 H   0  0  0  0  0  0  0  0  0  0  0  0
    0.5356   -1.2784    4.6595 H   0  0  0  0  0  0  0  0  0  0  0  0
   -0.1028   -2.1897    2.4846 S   0  0  0  0  0  0  0  0  0  0  0  0
   -0.8142   -3.6110    3.2724 C   0  0  0  0  0  0  0  0  0  0  0  0
   -0.1265   -4.3368    3.3589 H   0  0  0  0  0  0  0  0  0  0  0  0
   -1.1460   -3.3671    4.1885 H   0  0  0  0  0  0  0  0  0  0  0  0
   -1.5849   -3.9569    2.7290 H   0  0  0  0  0  0  0  0  0  0  0  0
  1  5  1  0
  5  8  1  0
  1  2  1  0
  1  3  1  0
  1  4  1  0
  5  6  1  0
  5  7  1  0
  8  9  1  0
  8 10  1  0
  8 11  1  0
 12 16  1  0
 16 17  1  0
 12 13  1  0
 12 14  1  0
 12 15  1  0
 17 18  1  0
 17 19  1  0
 17 20  1  0
M  CHG  1   8   1
M  END
>  <PDB_ID>  (1889) 
pdb5y9p

>  <RESIDUE_NAME>  (1889) 
LYS   MET

>  <FRAG_NAME>  (1889) 
ETAM   MSM

>  <FRAG_ATOM_NUM>  (1889) 
fragi: 11  fragj: 9

>  <atom.prop.CHAIN_ID>  (1889) 
A A A A A A A A A A A Z Z Z Z Z Z Z Z Z

>  <atom.prop.IS_HEAVY_ATOM>  (1889) 
1 0 0 0 1 0 0 1 0 0 0 1 0 0 0 1 1 0 0 0

>  <DIFUSE_FUNC_ATOM>  (1889) 
n/a

>  <FINAL_SINGLE_POINT_ENERGY>  (1889) 
0

>  <NONCOV_INTER_ENERGY_QM>  (1889) 
0

>  <FF_Energy>  (1889) 
3.55

>  <QM_Energy>  (1889) 
-6.67

>  <source>  (1889) 
ETAM_MSM

>  <Index>  (1889) 
12105

$$$$
ETAM-pdb5ya8-B-LYS-326:MSM-pdb5ya8-B-MET-18
     RDKit          3D

 20 18  0  0  0  0  0  0  0  0999 V2000
    1.2511    0.8546    0.0000 C   0  0  0  0  0  0  0  0  0  0  0  0
    1.2061    1.4898    0.7718 H   0  0  0  0  0  0  0  0  0  0  0  0
    1.2844    1.3739   -0.8552 H   0  0  0  0  0  0  0  0  0  0  0  0
    2.1662    0.2688    0.0871 H   0  0  0  0  0  0  0  0  0  0  0  0
    0.0000    0.0000    0.0000 C   0  0  0  0  0  0  0  0  0  0  0  0
    0.0034   -0.5880   -0.8163 H   0  0  0  0  0  0  0  0  0  0  0  0
    0.0032   -0.5887    0.8157 H   0  0  0  0  0  0  0  0  0  0  0  0
   -1.2511    0.8182    0.0000 N   0  0  0  0  0  4  0  0  0  0  0  0
   -1.5112    1.0204   -0.9427 H   0  0  0  0  0  0  0  0  0  0  0  0
   -1.9800    0.3031    0.4477 H   0  0  0  0  0  0  0  0  0  0  0  0
   -1.0865    1.6694    0.4951 H   0  0  0  0  0  0  0  0  0  0  0  0
   -2.3798   -1.6210   -4.4884 C   0  0  0  0  0  0  0  0  0  0  0  0
   -2.4633   -1.4322   -5.4899 H   0  0  0  0  0  0  0  0  0  0  0  0
   -3.3135   -1.4757   -4.0966 H   0  0  0  0  0  0  0  0  0  0  0  0
   -2.0900   -2.6620   -4.3451 H   0  0  0  0  0  0  0  0  0  0  0  0
   -1.1960   -0.4977   -3.7313 S   0  0  0  0  0  0  0  0  0  0  0  0
   -0.3771    0.0437   -5.2240 C   0  0  0  0  0  0  0  0  0  0  0  0
   -1.0598    0.3018   -5.9102 H   0  0  0  0  0  0  0  0  0  0  0  0
    0.2037    0.8345   -5.0232 H   0  0  0  0  0  0  0  0  0  0  0  0
    0.1900   -0.6984   -5.5872 H   0  0  0  0  0  0  0  0  0  0  0  0
  1  5  1  0
  5  8  1  0
  1  2  1  0
  1  3  1  0
  1  4  1  0
  5  6  1  0
  5  7  1  0
  8  9  1  0
  8 10  1  0
  8 11  1  0
 12 16  1  0
 16 17  1  0
 12 13  1  0
 12 14  1  0
 12 15  1  0
 17 18  1  0
 17 19  1  0
 17 20  1  0
M  CHG  1   8   1
M  END
>  <PDB_ID>  (1890) 
pdb5ya8

>  <RESIDUE_NAME>  (1890) 
LYS   MET

>  <FRAG_NAME>  (1890) 
ETAM   MSM

>  <FRAG_ATOM_NUM>  (1890) 
fragi: 11  fragj: 9

>  <atom.prop.CHAIN_ID>  (1890) 
A A A A A A A A A A A Z Z Z Z Z Z Z Z Z

>  <atom.prop.IS_HEAVY_ATOM>  (1890) 
1 0 0 0 1 0 0 1 0 0 0 1 0 0 0 1 1 0 0 0

>  <DIFUSE_FUNC_ATOM>  (1890) 
n/a

>  <FINAL_SINGLE_POINT_ENERGY>  (1890) 
0

>  <NONCOV_INTER_ENERGY_QM>  (1890) 
0

>  <FF_Energy>  (1890) 
-5.01

>  <QM_Energy>  (1890) 
-11.4

>  <source>  (1890) 
ETAM_MSM

>  <Index>  (1890) 
12121

$$$$
ETAM-pdb5yb6-E-LYS-603:MSM-pdb5yb6-E-MET-361
     RDKit          3D

 20 18  0  0  0  0  0  0  0  0999 V2000
    1.3085    0.8259   -0.0000 C   0  0  0  0  0  0  0  0  0  0  0  0
    1.4970    1.1148    0.9266 H   0  0  0  0  0  0  0  0  0  0  0  0
    1.1899    1.6012   -0.6019 H   0  0  0  0  0  0  0  0  0  0  0  0
    2.1543    0.2378   -0.3565 H   0  0  0  0  0  0  0  0  0  0  0  0
    0.0000    0.0000    0.0000 C   0  0  0  0  0  0  0  0  0  0  0  0
    0.0131   -0.6169   -0.8161 H   0  0  0  0  0  0  0  0  0  0  0  0
    0.0133   -0.6172    0.8162 H   0  0  0  0  0  0  0  0  0  0  0  0
   -1.3085    0.7619    0.0000 N   0  0  0  0  0  4  0  0  0  0  0  0
   -1.1106    1.7347    0.0686 H   0  0  0  0  0  0  0  0  0  0  0  0
   -1.7911    0.5668   -0.8489 H   0  0  0  0  0  0  0  0  0  0  0  0
   -1.8502    0.4654    0.7806 H   0  0  0  0  0  0  0  0  0  0  0  0
   -5.5947    2.8032   -1.5421 C   0  0  0  0  0  0  0  0  0  0  0  0
   -6.3038    3.3713   -1.0728 H   0  0  0  0  0  0  0  0  0  0  0  0
   -6.0998    2.0327   -1.9850 H   0  0  0  0  0  0  0  0  0  0  0  0
   -5.1435    3.4085   -2.3282 H   0  0  0  0  0  0  0  0  0  0  0  0
   -4.3747    2.2048   -0.3914 S   0  0  0  0  0  0  0  0  0  0  0  0
   -4.0326    3.6699    0.5756 C   0  0  0  0  0  0  0  0  0  0  0  0
   -3.0644    3.9117    0.4911 H   0  0  0  0  0  0  0  0  0  0  0  0
   -4.5926    4.4308    0.2439 H   0  0  0  0  0  0  0  0  0  0  0  0
   -4.2467    3.4961    1.5385 H   0  0  0  0  0  0  0  0  0  0  0  0
  1  5  1  0
  5  8  1  0
  1  2  1  0
  1  3  1  0
  1  4  1  0
  5  6  1  0
  5  7  1  0
  8  9  1  0
  8 10  1  0
  8 11  1  0
 12 16  1  0
 16 17  1  0
 12 13  1  0
 12 14  1  0
 12 15  1  0
 17 18  1  0
 17 19  1  0
 17 20  1  0
M  CHG  1   8   1
M  END
>  <PDB_ID>  (1891) 
pdb5yb6

>  <RESIDUE_NAME>  (1891) 
LYS   MET

>  <FRAG_NAME>  (1891) 
ETAM   MSM

>  <FRAG_ATOM_NUM>  (1891) 
fragi: 11  fragj: 9

>  <atom.prop.CHAIN_ID>  (1891) 
A A A A A A A A A A A Z Z Z Z Z Z Z Z Z

>  <atom.prop.IS_HEAVY_ATOM>  (1891) 
1 0 0 0 1 0 0 1 0 0 0 1 0 0 0 1 1 0 0 0

>  <DIFUSE_FUNC_ATOM>  (1891) 
n/a

>  <FINAL_SINGLE_POINT_ENERGY>  (1891) 
0

>  <NONCOV_INTER_ENERGY_QM>  (1891) 
0

>  <FF_Energy>  (1891) 
-4.68

>  <QM_Energy>  (1891) 
-11.0

>  <source>  (1891) 
ETAM_MSM

>  <Index>  (1891) 
12123

$$$$
ETAM-pdb5yf0-A-LYS-159:MSM-pdb5yf0-A-MET-80
     RDKit          3D

 20 18  0  0  0  0  0  0  0  0999 V2000
    1.2573    0.8650   -0.0000 C   0  0  0  0  0  0  0  0  0  0  0  0
    1.3130    1.3381    0.8728 H   0  0  0  0  0  0  0  0  0  0  0  0
    1.1877    1.5187   -0.7458 H   0  0  0  0  0  0  0  0  0  0  0  0
    2.1548    0.2618   -0.1361 H   0  0  0  0  0  0  0  0  0  0  0  0
    0.0000    0.0000    0.0000 C   0  0  0  0  0  0  0  0  0  0  0  0
    0.0100   -0.5871   -0.8159 H   0  0  0  0  0  0  0  0  0  0  0  0
    0.0095   -0.5865    0.8160 H   0  0  0  0  0  0  0  0  0  0  0  0
   -1.2573    0.8125   -0.0000 N   0  0  0  0  0  4  0  0  0  0  0  0
   -1.4329    1.1439    0.9249 H   0  0  0  0  0  0  0  0  0  0  0  0
   -1.1470    1.5861   -0.6212 H   0  0  0  0  0  0  0  0  0  0  0  0
   -2.0159    0.2403   -0.3045 H   0  0  0  0  0  0  0  0  0  0  0  0
   -1.1307   -3.6876   -3.2146 C   0  0  0  0  0  0  0  0  0  0  0  0
   -0.8550   -4.2997   -2.4468 H   0  0  0  0  0  0  0  0  0  0  0  0
   -0.3441   -3.6697   -3.8642 H   0  0  0  0  0  0  0  0  0  0  0  0
   -2.0004   -4.1126   -3.7158 H   0  0  0  0  0  0  0  0  0  0  0  0
   -1.4842   -2.0319   -2.6064 S   0  0  0  0  0  0  0  0  0  0  0  0
   -1.9944   -1.1764   -4.1066 C   0  0  0  0  0  0  0  0  0  0  0  0
   -2.9876   -1.2385   -4.2015 H   0  0  0  0  0  0  0  0  0  0  0  0
   -1.7219   -0.2161   -4.0491 H   0  0  0  0  0  0  0  0  0  0  0  0
   -1.5554   -1.6029   -4.8961 H   0  0  0  0  0  0  0  0  0  0  0  0
  1  5  1  0
  5  8  1  0
  1  2  1  0
  1  3  1  0
  1  4  1  0
  5  6  1  0
  5  7  1  0
  8  9  1  0
  8 10  1  0
  8 11  1  0
 12 16  1  0
 16 17  1  0
 12 13  1  0
 12 14  1  0
 12 15  1  0
 17 18  1  0
 17 19  1  0
 17 20  1  0
M  CHG  1   8   1
M  END
>  <PDB_ID>  (1892) 
pdb5yf0

>  <RESIDUE_NAME>  (1892) 
LYS   MET

>  <FRAG_NAME>  (1892) 
ETAM   MSM

>  <FRAG_ATOM_NUM>  (1892) 
fragi: 11  fragj: 9

>  <atom.prop.CHAIN_ID>  (1892) 
A A A A A A A A A A A Z Z Z Z Z Z Z Z Z

>  <atom.prop.IS_HEAVY_ATOM>  (1892) 
1 0 0 0 1 0 0 1 0 0 0 1 0 0 0 1 1 0 0 0

>  <DIFUSE_FUNC_ATOM>  (1892) 
n/a

>  <FINAL_SINGLE_POINT_ENERGY>  (1892) 
0

>  <NONCOV_INTER_ENERGY_QM>  (1892) 
0

>  <FF_Energy>  (1892) 
-4.29

>  <QM_Energy>  (1892) 
-10.12

>  <source>  (1892) 
ETAM_MSM

>  <Index>  (1892) 
12125

$$$$
ETAM-pdb5yei-B-LYS-343:MSM-pdb5yei-B-MET-294
     RDKit          3D

 20 18  0  0  0  0  0  0  0  0999 V2000
    1.2505    0.8267    0.0000 C   0  0  0  0  0  0  0  0  0  0  0  0
    1.2553    1.4041    0.8165 H   0  0  0  0  0  0  0  0  0  0  0  0
    1.2552    1.4051   -0.8165 H   0  0  0  0  0  0  0  0  0  0  0  0
    2.1468    0.2065    0.0001 H   0  0  0  0  0  0  0  0  0  0  0  0
    0.0000    0.0000    0.0000 C   0  0  0  0  0  0  0  0  0  0  0  0
    0.0065   -0.6092   -0.8166 H   0  0  0  0  0  0  0  0  0  0  0  0
    0.0063   -0.6096    0.8157 H   0  0  0  0  0  0  0  0  0  0  0  0
   -1.2505    0.7828    0.0000 N   0  0  0  0  0  4  0  0  0  0  0  0
   -1.7191    0.6722    0.8789 H   0  0  0  0  0  0  0  0  0  0  0  0
   -1.0424    1.7522   -0.1430 H   0  0  0  0  0  0  0  0  0  0  0  0
   -1.8501    0.4622   -0.7357 H   0  0  0  0  0  0  0  0  0  0  0  0
    1.0851    5.2153    1.5439 C   0  0  0  0  0  0  0  0  0  0  0  0
    1.1124    5.8450    2.3484 H   0  0  0  0  0  0  0  0  0  0  0  0
    0.3948    4.4967    1.7722 H   0  0  0  0  0  0  0  0  0  0  0  0
    0.7439    5.7711    0.6704 H   0  0  0  0  0  0  0  0  0  0  0  0
    2.7263    4.4510    1.2885 S   0  0  0  0  0  0  0  0  0  0  0  0
    2.3183    3.5378   -0.1868 C   0  0  0  0  0  0  0  0  0  0  0  0
    2.4863    2.5609   -0.0394 H   0  0  0  0  0  0  0  0  0  0  0  0
    1.3516    3.6740   -0.4145 H   0  0  0  0  0  0  0  0  0  0  0  0
    2.8833    3.8565   -0.9510 H   0  0  0  0  0  0  0  0  0  0  0  0
  1  5  1  0
  5  8  1  0
  1  2  1  0
  1  3  1  0
  1  4  1  0
  5  6  1  0
  5  7  1  0
  8  9  1  0
  8 10  1  0
  8 11  1  0
 12 16  1  0
 16 17  1  0
 12 13  1  0
 12 14  1  0
 12 15  1  0
 17 18  1  0
 17 19  1  0
 17 20  1  0
M  CHG  1   8   1
M  END
>  <PDB_ID>  (1893) 
pdb5yei

>  <RESIDUE_NAME>  (1893) 
LYS   MET

>  <FRAG_NAME>  (1893) 
ETAM   MSM

>  <FRAG_ATOM_NUM>  (1893) 
fragi: 11  fragj: 9

>  <atom.prop.CHAIN_ID>  (1893) 
A A A A A A A A A A A Z Z Z Z Z Z Z Z Z

>  <atom.prop.IS_HEAVY_ATOM>  (1893) 
1 0 0 0 1 0 0 1 0 0 0 1 0 0 0 1 1 0 0 0

>  <DIFUSE_FUNC_ATOM>  (1893) 
n/a

>  <FINAL_SINGLE_POINT_ENERGY>  (1893) 
0

>  <NONCOV_INTER_ENERGY_QM>  (1893) 
0

>  <FF_Energy>  (1893) 
17.82

>  <QM_Energy>  (1893) 
6.43

>  <source>  (1893) 
ETAM_MSM

>  <Index>  (1893) 
12128

$$$$
ETAM-pdb5yei-E-LYS-87:MSM-pdb5yei-L-MET-58
     RDKit          3D

 20 18  0  0  0  0  0  0  0  0999 V2000
    1.1914    0.9233   -0.0000 C   0  0  0  0  0  0  0  0  0  0  0  0
    1.9891    0.4292    0.3780 H   0  0  0  0  0  0  0  0  0  0  0  0
    0.9984    1.7064    0.6098 H   0  0  0  0  0  0  0  0  0  0  0  0
    1.4775    1.3212   -0.9736 H   0  0  0  0  0  0  0  0  0  0  0  0
    0.0000    0.0000    0.0000 C   0  0  0  0  0  0  0  0  0  0  0  0
    0.0080   -0.5453   -0.8161 H   0  0  0  0  0  0  0  0  0  0  0  0
    0.0075   -0.5461    0.8164 H   0  0  0  0  0  0  0  0  0  0  0  0
   -1.1914    0.8774    0.0000 N   0  0  0  0  0  4  0  0  0  0  0  0
   -2.0182    0.3213   -0.0934 H   0  0  0  0  0  0  0  0  0  0  0  0
   -1.2316    1.3892    0.8598 H   0  0  0  0  0  0  0  0  0  0  0  0
   -1.1352    1.5196   -0.7655 H   0  0  0  0  0  0  0  0  0  0  0  0
   -2.4214    0.4531   -2.6292 C   0  0  0  0  0  0  0  0  0  0  0  0
   -1.6321    0.8848   -2.1301 H   0  0  0  0  0  0  0  0  0  0  0  0
   -2.5029   -0.4922   -2.2308 H   0  0  0  0  0  0  0  0  0  0  0  0
   -3.3289    1.0105   -2.3970 H   0  0  0  0  0  0  0  0  0  0  0  0
   -2.0957    0.3759   -4.3841 S   0  0  0  0  0  0  0  0  0  0  0  0
   -1.7329    2.0660   -4.7109 C   0  0  0  0  0  0  0  0  0  0  0  0
   -1.5745    2.5647   -3.8510 H   0  0  0  0  0  0  0  0  0  0  0  0
   -0.9079    2.1448   -5.2817 H   0  0  0  0  0  0  0  0  0  0  0  0
   -2.4995    2.5023   -5.1958 H   0  0  0  0  0  0  0  0  0  0  0  0
  1  5  1  0
  5  8  1  0
  1  2  1  0
  1  3  1  0
  1  4  1  0
  5  6  1  0
  5  7  1  0
  8  9  1  0
  8 10  1  0
  8 11  1  0
 12 16  1  0
 16 17  1  0
 12 13  1  0
 12 14  1  0
 12 15  1  0
 17 18  1  0
 17 19  1  0
 17 20  1  0
M  CHG  1   8   1
M  END
>  <PDB_ID>  (1894) 
pdb5yei

>  <RESIDUE_NAME>  (1894) 
LYS   MET

>  <FRAG_NAME>  (1894) 
ETAM   MSM

>  <FRAG_ATOM_NUM>  (1894) 
fragi: 11  fragj: 9

>  <atom.prop.CHAIN_ID>  (1894) 
A A A A A A A A A A A Z Z Z Z Z Z Z Z Z

>  <atom.prop.IS_HEAVY_ATOM>  (1894) 
1 0 0 0 1 0 0 1 0 0 0 1 0 0 0 1 1 0 0 0

>  <DIFUSE_FUNC_ATOM>  (1894) 
n/a

>  <FINAL_SINGLE_POINT_ENERGY>  (1894) 
0

>  <NONCOV_INTER_ENERGY_QM>  (1894) 
0

>  <FF_Energy>  (1894) 
10.13

>  <QM_Energy>  (1894) 
3.93

>  <source>  (1894) 
ETAM_MSM

>  <Index>  (1894) 
12133

$$$$
ETAM-pdb5yfz-B-LYS-383:MSM-pdb5yfz-A-MET-1
     RDKit          3D

 20 18  0  0  0  0  0  0  0  0999 V2000
    1.2283    0.8923    0.0000 C   0  0  0  0  0  0  0  0  0  0  0  0
    1.5505    0.9916    0.9403 H   0  0  0  0  0  0  0  0  0  0  0  0
    0.9733    1.7861   -0.3649 H   0  0  0  0  0  0  0  0  0  0  0  0
    2.0380    0.4847   -0.6053 H   0  0  0  0  0  0  0  0  0  0  0  0
    0.0000    0.0000    0.0000 C   0  0  0  0  0  0  0  0  0  0  0  0
    0.0167   -0.5732   -0.8159 H   0  0  0  0  0  0  0  0  0  0  0  0
    0.0161   -0.5734    0.8165 H   0  0  0  0  0  0  0  0  0  0  0  0
   -1.2283    0.8251    0.0000 N   0  0  0  0  0  4  0  0  0  0  0  0
   -1.6845    0.7487   -0.8880 H   0  0  0  0  0  0  0  0  0  0  0  0
   -1.8474    0.5062    0.7193 H   0  0  0  0  0  0  0  0  0  0  0  0
   -0.9901    1.7829    0.1684 H   0  0  0  0  0  0  0  0  0  0  0  0
   -4.9174    2.6396    1.6845 C   0  0  0  0  0  0  0  0  0  0  0  0
   -5.7275    2.9152    2.2183 H   0  0  0  0  0  0  0  0  0  0  0  0
   -5.0447    1.6810    1.3963 H   0  0  0  0  0  0  0  0  0  0  0  0
   -4.8419    3.2717    0.7997 H   0  0  0  0  0  0  0  0  0  0  0  0
   -3.4163    2.8216    2.6570 S   0  0  0  0  0  0  0  0  0  0  0  0
   -3.7955    1.7646    4.0470 C   0  0  0  0  0  0  0  0  0  0  0  0
   -3.4214    0.8491    3.8872 H   0  0  0  0  0  0  0  0  0  0  0  0
   -3.3909    2.1452    4.8812 H   0  0  0  0  0  0  0  0  0  0  0  0
   -4.7890    1.7006    4.1613 H   0  0  0  0  0  0  0  0  0  0  0  0
  1  5  1  0
  5  8  1  0
  1  2  1  0
  1  3  1  0
  1  4  1  0
  5  6  1  0
  5  7  1  0
  8  9  1  0
  8 10  1  0
  8 11  1  0
 12 16  1  0
 16 17  1  0
 12 13  1  0
 12 14  1  0
 12 15  1  0
 17 18  1  0
 17 19  1  0
 17 20  1  0
M  CHG  1   8   1
M  END
>  <PDB_ID>  (1895) 
pdb5yfz

>  <RESIDUE_NAME>  (1895) 
LYS   MET

>  <FRAG_NAME>  (1895) 
ETAM   MSM

>  <FRAG_ATOM_NUM>  (1895) 
fragi: 11  fragj: 9

>  <atom.prop.CHAIN_ID>  (1895) 
A A A A A A A A A A A Z Z Z Z Z Z Z Z Z

>  <atom.prop.IS_HEAVY_ATOM>  (1895) 
1 0 0 0 1 0 0 1 0 0 0 1 0 0 0 1 1 0 0 0

>  <DIFUSE_FUNC_ATOM>  (1895) 
n/a

>  <FINAL_SINGLE_POINT_ENERGY>  (1895) 
0

>  <NONCOV_INTER_ENERGY_QM>  (1895) 
0

>  <FF_Energy>  (1895) 
-3.35

>  <QM_Energy>  (1895) 
-9.02

>  <source>  (1895) 
ETAM_MSM

>  <Index>  (1895) 
12135

$$$$
ETAM-pdb5y9e-C-LYS-65:MSM-pdb5y9e-C-MET-200
     RDKit          3D

 20 18  0  0  0  0  0  0  0  0999 V2000
    1.2490    0.8675    0.0000 C   0  0  0  0  0  0  0  0  0  0  0  0
    1.2463    1.4287    0.8212 H   0  0  0  0  0  0  0  0  0  0  0  0
    1.2370    1.4403   -0.8126 H   0  0  0  0  0  0  0  0  0  0  0  0
    2.1545    0.2608   -0.0084 H   0  0  0  0  0  0  0  0  0  0  0  0
    0.0000    0.0000    0.0000 C   0  0  0  0  0  0  0  0  0  0  0  0
    0.0104   -0.5858   -0.8158 H   0  0  0  0  0  0  0  0  0  0  0  0
    0.0098   -0.5855    0.8161 H   0  0  0  0  0  0  0  0  0  0  0  0
   -1.2490    0.8137    0.0000 N   0  0  0  0  0  4  0  0  0  0  0  0
   -1.6048    0.8721    0.9313 H   0  0  0  0  0  0  0  0  0  0  0  0
   -1.0454    1.7318   -0.3398 H   0  0  0  0  0  0  0  0  0  0  0  0
   -1.9264    0.3789   -0.5925 H   0  0  0  0  0  0  0  0  0  0  0  0
   -3.3428    0.5277   -3.5683 C   0  0  0  0  0  0  0  0  0  0  0  0
   -2.9624    1.4265   -3.8906 H   0  0  0  0  0  0  0  0  0  0  0  0
   -3.8467    0.7454   -2.6987 H   0  0  0  0  0  0  0  0  0  0  0  0
   -4.0648    0.1769   -4.3057 H   0  0  0  0  0  0  0  0  0  0  0  0
   -2.0168   -0.6525   -3.2590 S   0  0  0  0  0  0  0  0  0  0  0  0
   -2.9253   -2.0111   -2.5278 C   0  0  0  0  0  0  0  0  0  0  0  0
   -2.6019   -2.8770   -2.9120 H   0  0  0  0  0  0  0  0  0  0  0  0
   -2.7833   -2.0159   -1.5367 H   0  0  0  0  0  0  0  0  0  0  0  0
   -3.9017   -1.9056   -2.7226 H   0  0  0  0  0  0  0  0  0  0  0  0
  1  5  1  0
  5  8  1  0
  1  2  1  0
  1  3  1  0
  1  4  1  0
  5  6  1  0
  5  7  1  0
  8  9  1  0
  8 10  1  0
  8 11  1  0
 12 16  1  0
 16 17  1  0
 12 13  1  0
 12 14  1  0
 12 15  1  0
 17 18  1  0
 17 19  1  0
 17 20  1  0
M  CHG  1   8   1
M  END
>  <PDB_ID>  (1896) 
pdb5y9e

>  <RESIDUE_NAME>  (1896) 
LYS   MET

>  <FRAG_NAME>  (1896) 
ETAM   MSM

>  <FRAG_ATOM_NUM>  (1896) 
fragi: 11  fragj: 9

>  <atom.prop.CHAIN_ID>  (1896) 
A A A A A A A A A A A Z Z Z Z Z Z Z Z Z

>  <atom.prop.IS_HEAVY_ATOM>  (1896) 
1 0 0 0 1 0 0 1 0 0 0 1 0 0 0 1 1 0 0 0

>  <DIFUSE_FUNC_ATOM>  (1896) 
n/a

>  <FINAL_SINGLE_POINT_ENERGY>  (1896) 
0

>  <NONCOV_INTER_ENERGY_QM>  (1896) 
0

>  <FF_Energy>  (1896) 
-4.16

>  <QM_Energy>  (1896) 
-11.21

>  <source>  (1896) 
ETAM_MSM

>  <Index>  (1896) 
12142

$$$$
ETAM-pdb5ya8-C-LYS-326:MSM-pdb5ya8-C-MET-18
     RDKit          3D

 20 18  0  0  0  0  0  0  0  0999 V2000
    1.2567    0.8394    0.0000 C   0  0  0  0  0  0  0  0  0  0  0  0
    1.3282    1.3114    0.8682 H   0  0  0  0  0  0  0  0  0  0  0  0
    1.2141    1.4822   -0.7520 H   0  0  0  0  0  0  0  0  0  0  0  0
    2.1350    0.2068   -0.1282 H   0  0  0  0  0  0  0  0  0  0  0  0
    0.0000    0.0000    0.0000 C   0  0  0  0  0  0  0  0  0  0  0  0
    0.0101   -0.6039   -0.8161 H   0  0  0  0  0  0  0  0  0  0  0  0
    0.0087   -0.6036    0.8167 H   0  0  0  0  0  0  0  0  0  0  0  0
   -1.2567    0.7875   -0.0000 N   0  0  0  0  0  4  0  0  0  0  0  0
   -1.6633    0.7673   -0.9136 H   0  0  0  0  0  0  0  0  0  0  0  0
   -1.8980    0.3936    0.6584 H   0  0  0  0  0  0  0  0  0  0  0  0
   -1.0580    1.7346    0.2548 H   0  0  0  0  0  0  0  0  0  0  0  0
   -3.3011   -1.7253   -3.6516 C   0  0  0  0  0  0  0  0  0  0  0  0
   -3.5987   -1.5713   -4.6323 H   0  0  0  0  0  0  0  0  0  0  0  0
   -4.1392   -1.4749   -3.0944 H   0  0  0  0  0  0  0  0  0  0  0  0
   -3.1009   -2.7881   -3.5152 H   0  0  0  0  0  0  0  0  0  0  0  0
   -1.9153   -0.5896   -3.2360 S   0  0  0  0  0  0  0  0  0  0  0  0
   -1.4068   -0.0589   -4.8690 C   0  0  0  0  0  0  0  0  0  0  0  0
   -0.8427    0.7650   -4.7944 H   0  0  0  0  0  0  0  0  0  0  0  0
   -0.8754   -0.7846   -5.3079 H   0  0  0  0  0  0  0  0  0  0  0  0
   -2.2149    0.1421   -5.4239 H   0  0  0  0  0  0  0  0  0  0  0  0
  1  5  1  0
  5  8  1  0
  1  2  1  0
  1  3  1  0
  1  4  1  0
  5  6  1  0
  5  7  1  0
  8  9  1  0
  8 10  1  0
  8 11  1  0
 12 16  1  0
 16 17  1  0
 12 13  1  0
 12 14  1  0
 12 15  1  0
 17 18  1  0
 17 19  1  0
 17 20  1  0
M  CHG  1   8   1
M  END
>  <PDB_ID>  (1897) 
pdb5ya8

>  <RESIDUE_NAME>  (1897) 
LYS   MET

>  <FRAG_NAME>  (1897) 
ETAM   MSM

>  <FRAG_ATOM_NUM>  (1897) 
fragi: 11  fragj: 9

>  <atom.prop.CHAIN_ID>  (1897) 
A A A A A A A A A A A Z Z Z Z Z Z Z Z Z

>  <atom.prop.IS_HEAVY_ATOM>  (1897) 
1 0 0 0 1 0 0 1 0 0 0 1 0 0 0 1 1 0 0 0

>  <DIFUSE_FUNC_ATOM>  (1897) 
n/a

>  <FINAL_SINGLE_POINT_ENERGY>  (1897) 
0

>  <NONCOV_INTER_ENERGY_QM>  (1897) 
0

>  <FF_Energy>  (1897) 
-5.76

>  <QM_Energy>  (1897) 
-14.5

>  <source>  (1897) 
ETAM_MSM

>  <Index>  (1897) 
12143

$$$$
ETAM-pdb5yih-D-LYS-11:MSM-pdb5yih-D-MET-67
     RDKit          3D

 20 18  0  0  0  0  0  0  0  0999 V2000
    1.2064    0.9014   -0.0000 C   0  0  0  0  0  0  0  0  0  0  0  0
    1.4821    1.0743    0.9469 H   0  0  0  0  0  0  0  0  0  0  0  0
    0.9637    1.7676   -0.4386 H   0  0  0  0  0  0  0  0  0  0  0  0
    2.0537    0.4694   -0.5325 H   0  0  0  0  0  0  0  0  0  0  0  0
    0.0000    0.0000    0.0000 C   0  0  0  0  0  0  0  0  0  0  0  0
    0.0165   -0.5670   -0.8160 H   0  0  0  0  0  0  0  0  0  0  0  0
    0.0162   -0.5669    0.8161 H   0  0  0  0  0  0  0  0  0  0  0  0
   -1.2064    0.8356   -0.0000 N   0  0  0  0  0  4  0  0  0  0  0  0
   -2.0197    0.2617   -0.1223 H   0  0  0  0  0  0  0  0  0  0  0  0
   -1.2815    1.3272    0.8709 H   0  0  0  0  0  0  0  0  0  0  0  0
   -1.1609    1.5010   -0.7486 H   0  0  0  0  0  0  0  0  0  0  0  0
    0.0381    4.1149   -3.7619 C   0  0  0  0  0  0  0  0  0  0  0  0
   -0.3090    4.7500   -3.0309 H   0  0  0  0  0  0  0  0  0  0  0  0
   -0.8042    3.7824   -4.2498 H   0  0  0  0  0  0  0  0  0  0  0  0
    0.6212    4.7066   -4.4674 H   0  0  0  0  0  0  0  0  0  0  0  0
    0.9518    2.7331   -3.0366 S   0  0  0  0  0  0  0  0  0  0  0  0
    1.2152    1.7901   -4.5605 C   0  0  0  0  0  0  0  0  0  0  0  0
    1.7924    2.3214   -5.1769 H   0  0  0  0  0  0  0  0  0  0  0  0
    1.6629    0.9273   -4.3358 H   0  0  0  0  0  0  0  0  0  0  0  0
    0.3329    1.6119   -4.9901 H   0  0  0  0  0  0  0  0  0  0  0  0
  1  5  1  0
  5  8  1  0
  1  2  1  0
  1  3  1  0
  1  4  1  0
  5  6  1  0
  5  7  1  0
  8  9  1  0
  8 10  1  0
  8 11  1  0
 12 16  1  0
 16 17  1  0
 12 13  1  0
 12 14  1  0
 12 15  1  0
 17 18  1  0
 17 19  1  0
 17 20  1  0
M  CHG  1   8   1
M  END
>  <PDB_ID>  (1898) 
pdb5yih

>  <RESIDUE_NAME>  (1898) 
LYS   MET

>  <FRAG_NAME>  (1898) 
ETAM   MSM

>  <FRAG_ATOM_NUM>  (1898) 
fragi: 11  fragj: 9

>  <atom.prop.CHAIN_ID>  (1898) 
A A A A A A A A A A A Z Z Z Z Z Z Z Z Z

>  <atom.prop.IS_HEAVY_ATOM>  (1898) 
1 0 0 0 1 0 0 1 0 0 0 1 0 0 0 1 1 0 0 0

>  <DIFUSE_FUNC_ATOM>  (1898) 
n/a

>  <FINAL_SINGLE_POINT_ENERGY>  (1898) 
0

>  <NONCOV_INTER_ENERGY_QM>  (1898) 
0

>  <FF_Energy>  (1898) 
-3.85

>  <QM_Energy>  (1898) 
-9.78

>  <source>  (1898) 
ETAM_MSM

>  <Index>  (1898) 
12148

$$$$
ETAM-pdb5yb6-F-LYS-603:MSM-pdb5yb6-F-MET-361
     RDKit          3D

 20 18  0  0  0  0  0  0  0  0999 V2000
    1.2844    0.8029   -0.0000 C   0  0  0  0  0  0  0  0  0  0  0  0
    1.1077    1.6895    0.4621 H   0  0  0  0  0  0  0  0  0  0  0  0
    1.5304    1.0130   -0.9632 H   0  0  0  0  0  0  0  0  0  0  0  0
    2.1456    0.3359    0.4778 H   0  0  0  0  0  0  0  0  0  0  0  0
    0.0000    0.0000    0.0000 C   0  0  0  0  0  0  0  0  0  0  0  0
   -0.0080   -0.6130   -0.8167 H   0  0  0  0  0  0  0  0  0  0  0  0
   -0.0090   -0.6132    0.8163 H   0  0  0  0  0  0  0  0  0  0  0  0
   -1.2844    0.7952    0.0000 N   0  0  0  0  0  4  0  0  0  0  0  0
   -1.0637    1.7597   -0.1123 H   0  0  0  0  0  0  0  0  0  0  0  0
   -1.8548    0.4827   -0.7548 H   0  0  0  0  0  0  0  0  0  0  0  0
   -1.7524    0.6488    0.8670 H   0  0  0  0  0  0  0  0  0  0  0  0
   -6.1689   -1.1643   -0.2805 C   0  0  0  0  0  0  0  0  0  0  0  0
   -6.8870   -1.1908   -1.0182 H   0  0  0  0  0  0  0  0  0  0  0  0
   -6.6377   -0.7334    0.5292 H   0  0  0  0  0  0  0  0  0  0  0  0
   -5.9105   -2.1906   -0.0196 H   0  0  0  0  0  0  0  0  0  0  0  0
   -4.7560   -0.1781   -0.7992 S   0  0  0  0  0  0  0  0  0  0  0  0
   -4.4985   -0.8310   -2.4375 C   0  0  0  0  0  0  0  0  0  0  0  0
   -4.6407   -0.1081   -3.1184 H   0  0  0  0  0  0  0  0  0  0  0  0
   -3.5624   -1.1806   -2.5207 H   0  0  0  0  0  0  0  0  0  0  0  0
   -5.1447   -1.5773   -2.6113 H   0  0  0  0  0  0  0  0  0  0  0  0
  1  5  1  0
  5  8  1  0
  1  2  1  0
  1  3  1  0
  1  4  1  0
  5  6  1  0
  5  7  1  0
  8  9  1  0
  8 10  1  0
  8 11  1  0
 12 16  1  0
 16 17  1  0
 12 13  1  0
 12 14  1  0
 12 15  1  0
 17 18  1  0
 17 19  1  0
 17 20  1  0
M  CHG  1   8   1
M  END
>  <PDB_ID>  (1899) 
pdb5yb6

>  <RESIDUE_NAME>  (1899) 
LYS   MET

>  <FRAG_NAME>  (1899) 
ETAM   MSM

>  <FRAG_ATOM_NUM>  (1899) 
fragi: 11  fragj: 9

>  <atom.prop.CHAIN_ID>  (1899) 
A A A A A A A A A A A Z Z Z Z Z Z Z Z Z

>  <atom.prop.IS_HEAVY_ATOM>  (1899) 
1 0 0 0 1 0 0 1 0 0 0 1 0 0 0 1 1 0 0 0

>  <DIFUSE_FUNC_ATOM>  (1899) 
n/a

>  <FINAL_SINGLE_POINT_ENERGY>  (1899) 
0

>  <NONCOV_INTER_ENERGY_QM>  (1899) 
0

>  <FF_Energy>  (1899) 
-4.63

>  <QM_Energy>  (1899) 
-9.93

>  <source>  (1899) 
ETAM_MSM

>  <Index>  (1899) 
12156

$$$$
ETAM-pdb5yb6-H-LYS-603:MSM-pdb5yb6-H-MET-361
     RDKit          3D

 20 18  0  0  0  0  0  0  0  0999 V2000
    1.2766    0.8281    0.0000 C   0  0  0  0  0  0  0  0  0  0  0  0
    1.6781    0.7923    0.9035 H   0  0  0  0  0  0  0  0  0  0  0  0
    1.0524    1.7562   -0.2566 H   0  0  0  0  0  0  0  0  0  0  0  0
    1.9873    0.4220   -0.7198 H   0  0  0  0  0  0  0  0  0  0  0  0
    0.0000    0.0000    0.0000 C   0  0  0  0  0  0  0  0  0  0  0  0
    0.0207   -0.6213   -0.8160 H   0  0  0  0  0  0  0  0  0  0  0  0
    0.0212   -0.6210    0.8166 H   0  0  0  0  0  0  0  0  0  0  0  0
   -1.2766    0.7462   -0.0000 N   0  0  0  0  0  4  0  0  0  0  0  0
   -1.1800    1.5776    0.5493 H   0  0  0  0  0  0  0  0  0  0  0  0
   -1.5204    0.9957   -0.9390 H   0  0  0  0  0  0  0  0  0  0  0  0
   -2.0008    0.1748    0.3895 H   0  0  0  0  0  0  0  0  0  0  0  0
   -5.2023    1.8932   -3.2952 C   0  0  0  0  0  0  0  0  0  0  0  0
   -5.9808    2.5756   -3.3108 H   0  0  0  0  0  0  0  0  0  0  0  0
   -5.6685    0.9784   -3.4348 H   0  0  0  0  0  0  0  0  0  0  0  0
   -4.5802    2.0835   -4.1699 H   0  0  0  0  0  0  0  0  0  0  0  0
   -4.3287    1.9445   -1.7444 S   0  0  0  0  0  0  0  0  0  0  0  0
   -3.8831    3.6366   -1.5096 C   0  0  0  0  0  0  0  0  0  0  0  0
   -2.9087    3.7111   -1.2712 H   0  0  0  0  0  0  0  0  0  0  0  0
   -4.0485    4.1608   -2.3512 H   0  0  0  0  0  0  0  0  0  0  0  0
   -4.4278    4.0408   -0.7667 H   0  0  0  0  0  0  0  0  0  0  0  0
  1  5  1  0
  5  8  1  0
  1  2  1  0
  1  3  1  0
  1  4  1  0
  5  6  1  0
  5  7  1  0
  8  9  1  0
  8 10  1  0
  8 11  1  0
 12 16  1  0
 16 17  1  0
 12 13  1  0
 12 14  1  0
 12 15  1  0
 17 18  1  0
 17 19  1  0
 17 20  1  0
M  CHG  1   8   1
M  END
>  <PDB_ID>  (1900) 
pdb5yb6

>  <RESIDUE_NAME>  (1900) 
LYS   MET

>  <FRAG_NAME>  (1900) 
ETAM   MSM

>  <FRAG_ATOM_NUM>  (1900) 
fragi: 11  fragj: 9

>  <atom.prop.CHAIN_ID>  (1900) 
A A A A A A A A A A A Z Z Z Z Z Z Z Z Z

>  <atom.prop.IS_HEAVY_ATOM>  (1900) 
1 0 0 0 1 0 0 1 0 0 0 1 0 0 0 1 1 0 0 0

>  <DIFUSE_FUNC_ATOM>  (1900) 
n/a

>  <FINAL_SINGLE_POINT_ENERGY>  (1900) 
0

>  <NONCOV_INTER_ENERGY_QM>  (1900) 
0

>  <FF_Energy>  (1900) 
-4.34

>  <QM_Energy>  (1900) 
-10.57

>  <source>  (1900) 
ETAM_MSM

>  <Index>  (1900) 
12159

$$$$
ETAM-pdb5y9e-E-LYS-65:MSM-pdb5y9e-E-MET-200
     RDKit          3D

 20 18  0  0  0  0  0  0  0  0999 V2000
    1.2420    0.8750   -0.0000 C   0  0  0  0  0  0  0  0  0  0  0  0
    1.2338    1.4378    0.8212 H   0  0  0  0  0  0  0  0  0  0  0  0
    1.2247    1.4499   -0.8126 H   0  0  0  0  0  0  0  0  0  0  0  0
    2.1535    0.2775   -0.0085 H   0  0  0  0  0  0  0  0  0  0  0  0
    0.0000    0.0000    0.0000 C   0  0  0  0  0  0  0  0  0  0  0  0
    0.0142   -0.5832   -0.8165 H   0  0  0  0  0  0  0  0  0  0  0  0
    0.0137   -0.5833    0.8169 H   0  0  0  0  0  0  0  0  0  0  0  0
   -1.2420    0.8130    0.0000 N   0  0  0  0  0  4  0  0  0  0  0  0
   -1.4808    1.0566    0.9403 H   0  0  0  0  0  0  0  0  0  0  0  0
   -1.0951    1.6467   -0.5330 H   0  0  0  0  0  0  0  0  0  0  0  0
   -1.9868    0.2842   -0.4069 H   0  0  0  0  0  0  0  0  0  0  0  0
   -3.5123    0.5417   -3.4924 C   0  0  0  0  0  0  0  0  0  0  0  0
   -3.2020    1.4958   -3.7393 H   0  0  0  0  0  0  0  0  0  0  0  0
   -4.0393    0.6622   -2.6122 H   0  0  0  0  0  0  0  0  0  0  0  0
   -4.2082    0.2041   -4.2605 H   0  0  0  0  0  0  0  0  0  0  0  0
   -2.0898   -0.5462   -3.2399 S   0  0  0  0  0  0  0  0  0  0  0  0
   -2.8844   -2.0806   -2.7706 C   0  0  0  0  0  0  0  0  0  0  0  0
   -2.9577   -2.1294   -1.7734 H   0  0  0  0  0  0  0  0  0  0  0  0
   -3.8003   -2.1214   -3.1726 H   0  0  0  0  0  0  0  0  0  0  0  0
   -2.3422   -2.8543   -3.1019 H   0  0  0  0  0  0  0  0  0  0  0  0
  1  5  1  0
  5  8  1  0
  1  2  1  0
  1  3  1  0
  1  4  1  0
  5  6  1  0
  5  7  1  0
  8  9  1  0
  8 10  1  0
  8 11  1  0
 12 16  1  0
 16 17  1  0
 12 13  1  0
 12 14  1  0
 12 15  1  0
 17 18  1  0
 17 19  1  0
 17 20  1  0
M  CHG  1   8   1
M  END
>  <PDB_ID>  (1901) 
pdb5y9e

>  <RESIDUE_NAME>  (1901) 
LYS   MET

>  <FRAG_NAME>  (1901) 
ETAM   MSM

>  <FRAG_ATOM_NUM>  (1901) 
fragi: 11  fragj: 9

>  <atom.prop.CHAIN_ID>  (1901) 
A A A A A A A A A A A Z Z Z Z Z Z Z Z Z

>  <atom.prop.IS_HEAVY_ATOM>  (1901) 
1 0 0 0 1 0 0 1 0 0 0 1 0 0 0 1 1 0 0 0

>  <DIFUSE_FUNC_ATOM>  (1901) 
n/a

>  <FINAL_SINGLE_POINT_ENERGY>  (1901) 
0

>  <NONCOV_INTER_ENERGY_QM>  (1901) 
0

>  <FF_Energy>  (1901) 
-4.38

>  <QM_Energy>  (1901) 
-11.44

>  <source>  (1901) 
ETAM_MSM

>  <Index>  (1901) 
12167

$$$$
ETAM-pdb5yqi-A-LYS-939:MSM-pdb5yqi-A-MET-849
     RDKit          3D

 20 18  0  0  0  0  0  0  0  0999 V2000
    1.2490    0.8860   -0.0000 C   0  0  0  0  0  0  0  0  0  0  0  0
    1.3396    1.3033    0.9012 H   0  0  0  0  0  0  0  0  0  0  0  0
    1.1320    1.5958   -0.6921 H   0  0  0  0  0  0  0  0  0  0  0  0
    2.1601    0.3296   -0.2199 H   0  0  0  0  0  0  0  0  0  0  0  0
    0.0000    0.0000    0.0000 C   0  0  0  0  0  0  0  0  0  0  0  0
    0.0077   -0.5708   -0.8157 H   0  0  0  0  0  0  0  0  0  0  0  0
    0.0072   -0.5708    0.8161 H   0  0  0  0  0  0  0  0  0  0  0  0
   -1.2490    0.8391    0.0000 N   0  0  0  0  0  4  0  0  0  0  0  0
   -1.7566    0.6627    0.8396 H   0  0  0  0  0  0  0  0  0  0  0  0
   -0.9917    1.8012   -0.0479 H   0  0  0  0  0  0  0  0  0  0  0  0
   -1.8029    0.5946   -0.7917 H   0  0  0  0  0  0  0  0  0  0  0  0
   -2.3026   -1.5479    4.1514 C   0  0  0  0  0  0  0  0  0  0  0  0
   -1.8505   -2.4481    4.0323 H   0  0  0  0  0  0  0  0  0  0  0  0
   -3.1353   -1.5514    3.5729 H   0  0  0  0  0  0  0  0  0  0  0  0
   -2.5981   -1.4384    5.1948 H   0  0  0  0  0  0  0  0  0  0  0  0
   -1.1978   -0.2073    3.6763 S   0  0  0  0  0  0  0  0  0  0  0  0
   -2.3458    1.1519    3.4354 C   0  0  0  0  0  0  0  0  0  0  0  0
   -1.9567    1.9900    3.8193 H   0  0  0  0  0  0  0  0  0  0  0  0
   -2.5115    1.2790    2.4567 H   0  0  0  0  0  0  0  0  0  0  0  0
   -3.2096    0.9447    3.8954 H   0  0  0  0  0  0  0  0  0  0  0  0
  1  5  1  0
  5  8  1  0
  1  2  1  0
  1  3  1  0
  1  4  1  0
  5  6  1  0
  5  7  1  0
  8  9  1  0
  8 10  1  0
  8 11  1  0
 12 16  1  0
 16 17  1  0
 12 13  1  0
 12 14  1  0
 12 15  1  0
 17 18  1  0
 17 19  1  0
 17 20  1  0
M  CHG  1   8   1
M  END
>  <PDB_ID>  (1902) 
pdb5yqi

>  <RESIDUE_NAME>  (1902) 
LYS   MET

>  <FRAG_NAME>  (1902) 
ETAM   MSM

>  <FRAG_ATOM_NUM>  (1902) 
fragi: 11  fragj: 9

>  <atom.prop.CHAIN_ID>  (1902) 
A A A A A A A A A A A Z Z Z Z Z Z Z Z Z

>  <atom.prop.IS_HEAVY_ATOM>  (1902) 
1 0 0 0 1 0 0 1 0 0 0 1 0 0 0 1 1 0 0 0

>  <DIFUSE_FUNC_ATOM>  (1902) 
n/a

>  <FINAL_SINGLE_POINT_ENERGY>  (1902) 
0

>  <NONCOV_INTER_ENERGY_QM>  (1902) 
0

>  <FF_Energy>  (1902) 
-3.04

>  <QM_Energy>  (1902) 
-8.47

>  <source>  (1902) 
ETAM_MSM

>  <Index>  (1902) 
12178

$$$$
ETAM-pdb5ywr-B-LYS-167:MSM-pdb5ywr-B-MET-163
     RDKit          3D

 20 18  0  0  0  0  0  0  0  0999 V2000
    1.2551    0.8652    0.0000 C   0  0  0  0  0  0  0  0  0  0  0  0
    1.2246    1.4611    0.7871 H   0  0  0  0  0  0  0  0  0  0  0  0
    1.2806    1.3790   -0.8424 H   0  0  0  0  0  0  0  0  0  0  0  0
    2.1378    0.2288    0.0627 H   0  0  0  0  0  0  0  0  0  0  0  0
    0.0000    0.0000    0.0000 C   0  0  0  0  0  0  0  0  0  0  0  0
    0.0146   -0.5911   -0.8164 H   0  0  0  0  0  0  0  0  0  0  0  0
    0.0145   -0.5911    0.8161 H   0  0  0  0  0  0  0  0  0  0  0  0
   -1.2551    0.7999    0.0000 N   0  0  0  0  0  4  0  0  0  0  0  0
   -1.4329    1.1386    0.9239 H   0  0  0  0  0  0  0  0  0  0  0  0
   -1.1555    1.5722   -0.6263 H   0  0  0  0  0  0  0  0  0  0  0  0
   -2.0157    0.2229   -0.2971 H   0  0  0  0  0  0  0  0  0  0  0  0
   -1.8022   -1.2856   -3.4607 C   0  0  0  0  0  0  0  0  0  0  0  0
   -2.8129   -1.1159   -3.3799 H   0  0  0  0  0  0  0  0  0  0  0  0
   -1.5262   -1.6967   -2.5601 H   0  0  0  0  0  0  0  0  0  0  0  0
   -1.6426   -2.0303   -4.2404 H   0  0  0  0  0  0  0  0  0  0  0  0
   -0.9160    0.2567   -3.7582 S   0  0  0  0  0  0  0  0  0  0  0  0
   -1.7769    0.8604   -5.2099 C   0  0  0  0  0  0  0  0  0  0  0  0
   -2.5790    1.3888   -4.9282 H   0  0  0  0  0  0  0  0  0  0  0  0
   -1.1648    1.4446   -5.7438 H   0  0  0  0  0  0  0  0  0  0  0  0
   -2.0699    0.0854   -5.7716 H   0  0  0  0  0  0  0  0  0  0  0  0
  1  5  1  0
  5  8  1  0
  1  2  1  0
  1  3  1  0
  1  4  1  0
  5  6  1  0
  5  7  1  0
  8  9  1  0
  8 10  1  0
  8 11  1  0
 12 16  1  0
 16 17  1  0
 12 13  1  0
 12 14  1  0
 12 15  1  0
 17 18  1  0
 17 19  1  0
 17 20  1  0
M  CHG  1   8   1
M  END
>  <PDB_ID>  (1903) 
pdb5ywr

>  <RESIDUE_NAME>  (1903) 
LYS   MET

>  <FRAG_NAME>  (1903) 
ETAM   MSM

>  <FRAG_ATOM_NUM>  (1903) 
fragi: 11  fragj: 9

>  <atom.prop.CHAIN_ID>  (1903) 
A A A A A A A A A A A Z Z Z Z Z Z Z Z Z

>  <atom.prop.IS_HEAVY_ATOM>  (1903) 
1 0 0 0 1 0 0 1 0 0 0 1 0 0 0 1 1 0 0 0

>  <DIFUSE_FUNC_ATOM>  (1903) 
n/a

>  <FINAL_SINGLE_POINT_ENERGY>  (1903) 
0

>  <NONCOV_INTER_ENERGY_QM>  (1903) 
0

>  <FF_Energy>  (1903) 
-4.37

>  <QM_Energy>  (1903) 
-10.04

>  <source>  (1903) 
ETAM_MSM

>  <Index>  (1903) 
12191

$$$$
ETAM-pdb5yz4-A-LYS-123:MSM-pdb5yz4-A-MET-105
     RDKit          3D

 20 18  0  0  0  0  0  0  0  0999 V2000
    1.2391    0.8554    0.0000 C   0  0  0  0  0  0  0  0  0  0  0  0
    1.3350    1.2840   -0.8883 H   0  0  0  0  0  0  0  0  0  0  0  0
    2.0231    0.2860    0.2061 H   0  0  0  0  0  0  0  0  0  0  0  0
    1.1531    1.6316    0.7603 H   0  0  0  0  0  0  0  0  0  0  0  0
    0.0000    0.0000    0.0000 C   0  0  0  0  0  0  0  0  0  0  0  0
   -0.0030   -0.5816   -0.8160 H   0  0  0  0  0  0  0  0  0  0  0  0
   -0.0038   -0.5823    0.8168 H   0  0  0  0  0  0  0  0  0  0  0  0
   -1.2391    0.8359   -0.0000 N   0  0  0  0  0  4  0  0  0  0  0  0
   -0.9851    1.7999    0.0617 H   0  0  0  0  0  0  0  0  0  0  0  0
   -1.7450    0.6739   -0.8460 H   0  0  0  0  0  0  0  0  0  0  0  0
   -1.8041    0.5860    0.7843 H   0  0  0  0  0  0  0  0  0  0  0  0
   -4.9491    2.9822    1.5449 C   0  0  0  0  0  0  0  0  0  0  0  0
   -5.1163    2.2407    2.2407 H   0  0  0  0  0  0  0  0  0  0  0  0
   -5.2558    2.5753    0.6495 H   0  0  0  0  0  0  0  0  0  0  0  0
   -5.6039    3.8213    1.7795 H   0  0  0  0  0  0  0  0  0  0  0  0
   -3.1935    3.4145    1.4814 S   0  0  0  0  0  0  0  0  0  0  0  0
   -3.0746    4.2075   -0.1164 C   0  0  0  0  0  0  0  0  0  0  0  0
   -3.9913    4.4399   -0.4475 H   0  0  0  0  0  0  0  0  0  0  0  0
   -2.5301    5.0449   -0.0383 H   0  0  0  0  0  0  0  0  0  0  0  0
   -2.6357    3.5874   -0.7694 H   0  0  0  0  0  0  0  0  0  0  0  0
  1  5  1  0
  5  8  1  0
  1  2  1  0
  1  3  1  0
  1  4  1  0
  5  6  1  0
  5  7  1  0
  8  9  1  0
  8 10  1  0
  8 11  1  0
 12 16  1  0
 16 17  1  0
 12 13  1  0
 12 14  1  0
 12 15  1  0
 17 18  1  0
 17 19  1  0
 17 20  1  0
M  CHG  1   8   1
M  END
>  <PDB_ID>  (1904) 
pdb5yz4

>  <RESIDUE_NAME>  (1904) 
LYS   MET

>  <FRAG_NAME>  (1904) 
ETAM   MSM

>  <FRAG_ATOM_NUM>  (1904) 
fragi: 11  fragj: 9

>  <atom.prop.CHAIN_ID>  (1904) 
A A A A A A A A A A A Z Z Z Z Z Z Z Z Z

>  <atom.prop.IS_HEAVY_ATOM>  (1904) 
1 0 0 0 1 0 0 1 0 0 0 1 0 0 0 1 1 0 0 0

>  <DIFUSE_FUNC_ATOM>  (1904) 
n/a

>  <FINAL_SINGLE_POINT_ENERGY>  (1904) 
0

>  <NONCOV_INTER_ENERGY_QM>  (1904) 
0

>  <FF_Energy>  (1904) 
-3.85

>  <QM_Energy>  (1904) 
-9.84

>  <source>  (1904) 
ETAM_MSM

>  <Index>  (1904) 
12197

$$$$
ETAM-pdb5z2x-A-LYS-75:MSM-pdb5z2x-A-MET-1
     RDKit          3D

 20 18  0  0  0  0  0  0  0  0999 V2000
    1.2688    0.8687    0.0000 C   0  0  0  0  0  0  0  0  0  0  0  0
    1.1010    1.6644   -0.5686 H   0  0  0  0  0  0  0  0  0  0  0  0
    2.0167    0.3276   -0.3636 H   0  0  0  0  0  0  0  0  0  0  0  0
    1.5266    1.2003    1.0058 H   0  0  0  0  0  0  0  0  0  0  0  0
    0.0000    0.0000    0.0000 C   0  0  0  0  0  0  0  0  0  0  0  0
    0.0154   -0.5894   -0.8164 H   0  0  0  0  0  0  0  0  0  0  0  0
    0.0151   -0.5886    0.8166 H   0  0  0  0  0  0  0  0  0  0  0  0
   -1.2688    0.8018   -0.0000 N   0  0  0  0  0  4  0  0  0  0  0  0
   -1.9812    0.2841   -0.4688 H   0  0  0  0  0  0  0  0  0  0  0  0
   -1.5421    0.9791    0.9430 H   0  0  0  0  0  0  0  0  0  0  0  0
   -1.1088    1.6647   -0.4742 H   0  0  0  0  0  0  0  0  0  0  0  0
   -2.0022    2.6322   -3.0788 C   0  0  0  0  0  0  0  0  0  0  0  0
   -2.7528    2.1631   -2.5665 H   0  0  0  0  0  0  0  0  0  0  0  0
   -2.3253    2.7036   -4.0469 H   0  0  0  0  0  0  0  0  0  0  0  0
   -1.8920    3.6398   -2.6781 H   0  0  0  0  0  0  0  0  0  0  0  0
   -0.4645    1.6705   -2.9863 S   0  0  0  0  0  0  0  0  0  0  0  0
    0.5987    2.6197   -4.0823 C   0  0  0  0  0  0  0  0  0  0  0  0
    0.3699    3.5904   -4.0096 H   0  0  0  0  0  0  0  0  0  0  0  0
    1.5538    2.4809   -3.8210 H   0  0  0  0  0  0  0  0  0  0  0  0
    0.4622    2.3145   -5.0251 H   0  0  0  0  0  0  0  0  0  0  0  0
  1  5  1  0
  5  8  1  0
  1  2  1  0
  1  3  1  0
  1  4  1  0
  5  6  1  0
  5  7  1  0
  8  9  1  0
  8 10  1  0
  8 11  1  0
 12 16  1  0
 16 17  1  0
 12 13  1  0
 12 14  1  0
 12 15  1  0
 17 18  1  0
 17 19  1  0
 17 20  1  0
M  CHG  1   8   1
M  END
>  <PDB_ID>  (1905) 
pdb5z2x

>  <RESIDUE_NAME>  (1905) 
LYS   MET

>  <FRAG_NAME>  (1905) 
ETAM   MSM

>  <FRAG_ATOM_NUM>  (1905) 
fragi: 11  fragj: 9

>  <atom.prop.CHAIN_ID>  (1905) 
A A A A A A A A A A A Z Z Z Z Z Z Z Z Z

>  <atom.prop.IS_HEAVY_ATOM>  (1905) 
1 0 0 0 1 0 0 1 0 0 0 1 0 0 0 1 1 0 0 0

>  <DIFUSE_FUNC_ATOM>  (1905) 
n/a

>  <FINAL_SINGLE_POINT_ENERGY>  (1905) 
0

>  <NONCOV_INTER_ENERGY_QM>  (1905) 
0

>  <FF_Energy>  (1905) 
-4.51

>  <QM_Energy>  (1905) 
-12.91

>  <source>  (1905) 
ETAM_MSM

>  <Index>  (1905) 
12213

$$$$
ETAM-pdb5z2x-B-LYS-75:MSM-pdb5z2x-B-MET-1
     RDKit          3D

 20 18  0  0  0  0  0  0  0  0999 V2000
    1.2256    0.8649    0.0000 C   0  0  0  0  0  0  0  0  0  0  0  0
    0.9378    1.8237   -0.0858 H   0  0  0  0  0  0  0  0  0  0  0  0
    1.7841    0.6227   -0.7984 H   0  0  0  0  0  0  0  0  0  0  0  0
    1.8167    0.7440    0.9078 H   0  0  0  0  0  0  0  0  0  0  0  0
    0.0000    0.0000    0.0000 C   0  0  0  0  0  0  0  0  0  0  0  0
    0.0047   -0.5831   -0.8163 H   0  0  0  0  0  0  0  0  0  0  0  0
    0.0051   -0.5827    0.8166 H   0  0  0  0  0  0  0  0  0  0  0  0
   -1.2256    0.8259   -0.0000 N   0  0  0  0  0  4  0  0  0  0  0  0
   -1.1371    1.5606   -0.6747 H   0  0  0  0  0  0  0  0  0  0  0  0
   -2.0157    0.2563   -0.2328 H   0  0  0  0  0  0  0  0  0  0  0  0
   -1.3621    1.2260    0.9075 H   0  0  0  0  0  0  0  0  0  0  0  0
    0.4837    4.3380   -1.9958 C   0  0  0  0  0  0  0  0  0  0  0  0
    0.1787    4.5716   -1.0887 H   0  0  0  0  0  0  0  0  0  0  0  0
    0.1868    4.9965   -2.6656 H   0  0  0  0  0  0  0  0  0  0  0  0
    1.5709    4.2623   -2.0101 H   0  0  0  0  0  0  0  0  0  0  0  0
   -0.0386    2.6872   -2.4428 S   0  0  0  0  0  0  0  0  0  0  0  0
    1.0981    2.1868   -3.7018 C   0  0  0  0  0  0  0  0  0  0  0  0
    1.4896    1.2885   -3.4785 H   0  0  0  0  0  0  0  0  0  0  0  0
    0.6283    2.1227   -4.5873 H   0  0  0  0  0  0  0  0  0  0  0  0
    1.8453    2.8541   -3.7803 H   0  0  0  0  0  0  0  0  0  0  0  0
  1  5  1  0
  5  8  1  0
  1  2  1  0
  1  3  1  0
  1  4  1  0
  5  6  1  0
  5  7  1  0
  8  9  1  0
  8 10  1  0
  8 11  1  0
 12 16  1  0
 16 17  1  0
 12 13  1  0
 12 14  1  0
 12 15  1  0
 17 18  1  0
 17 19  1  0
 17 20  1  0
M  CHG  1   8   1
M  END
>  <PDB_ID>  (1906) 
pdb5z2x

>  <RESIDUE_NAME>  (1906) 
LYS   MET

>  <FRAG_NAME>  (1906) 
ETAM   MSM

>  <FRAG_ATOM_NUM>  (1906) 
fragi: 11  fragj: 9

>  <atom.prop.CHAIN_ID>  (1906) 
A A A A A A A A A A A Z Z Z Z Z Z Z Z Z

>  <atom.prop.IS_HEAVY_ATOM>  (1906) 
1 0 0 0 1 0 0 1 0 0 0 1 0 0 0 1 1 0 0 0

>  <DIFUSE_FUNC_ATOM>  (1906) 
n/a

>  <FINAL_SINGLE_POINT_ENERGY>  (1906) 
0

>  <NONCOV_INTER_ENERGY_QM>  (1906) 
0

>  <FF_Energy>  (1906) 
-4.51

>  <QM_Energy>  (1906) 
-13.96

>  <source>  (1906) 
ETAM_MSM

>  <Index>  (1906) 
12214

$$$$
ETAM-pdb5zcr-A-LYS-719:MSM-pdb5zcr-A-MET-579
     RDKit          3D

 20 18  0  0  0  0  0  0  0  0999 V2000
    1.2544    0.8867    0.0000 C   0  0  0  0  0  0  0  0  0  0  0  0
    2.0460    0.3124    0.2100 H   0  0  0  0  0  0  0  0  0  0  0  0
    1.1480    1.5826    0.7103 H   0  0  0  0  0  0  0  0  0  0  0  0
    1.4356    1.3884   -0.9507 H   0  0  0  0  0  0  0  0  0  0  0  0
    0.0000    0.0000    0.0000 C   0  0  0  0  0  0  0  0  0  0  0  0
    0.0237   -0.5847   -0.8166 H   0  0  0  0  0  0  0  0  0  0  0  0
    0.0232   -0.5843    0.8164 H   0  0  0  0  0  0  0  0  0  0  0  0
   -1.2544    0.7980   -0.0000 N   0  0  0  0  0  4  0  0  0  0  0  0
   -1.1655    1.5573    0.6445 H   0  0  0  0  0  0  0  0  0  0  0  0
   -1.4203    1.1567   -0.9189 H   0  0  0  0  0  0  0  0  0  0  0  0
   -2.0190    0.2147    0.2742 H   0  0  0  0  0  0  0  0  0  0  0  0
   -1.2107    2.8351   -3.9786 C   0  0  0  0  0  0  0  0  0  0  0  0
   -1.2199    3.5557   -3.2467 H   0  0  0  0  0  0  0  0  0  0  0  0
   -1.8992    3.1493   -4.6746 H   0  0  0  0  0  0  0  0  0  0  0  0
   -0.2247    2.8227   -4.4430 H   0  0  0  0  0  0  0  0  0  0  0  0
   -1.6718    1.2396   -3.3048 S   0  0  0  0  0  0  0  0  0  0  0  0
   -3.3664    1.5638   -2.9108 C   0  0  0  0  0  0  0  0  0  0  0  0
   -3.9637    0.9067   -3.3807 H   0  0  0  0  0  0  0  0  0  0  0  0
   -3.5134    1.4829   -1.9207 H   0  0  0  0  0  0  0  0  0  0  0  0
   -3.6182    2.4929   -3.1998 H   0  0  0  0  0  0  0  0  0  0  0  0
  1  5  1  0
  5  8  1  0
  1  2  1  0
  1  3  1  0
  1  4  1  0
  5  6  1  0
  5  7  1  0
  8  9  1  0
  8 10  1  0
  8 11  1  0
 12 16  1  0
 16 17  1  0
 12 13  1  0
 12 14  1  0
 12 15  1  0
 17 18  1  0
 17 19  1  0
 17 20  1  0
M  CHG  1   8   1
M  END
>  <PDB_ID>  (1907) 
pdb5zcr

>  <RESIDUE_NAME>  (1907) 
LYS   MET

>  <FRAG_NAME>  (1907) 
ETAM   MSM

>  <FRAG_ATOM_NUM>  (1907) 
fragi: 11  fragj: 9

>  <atom.prop.CHAIN_ID>  (1907) 
A A A A A A A A A A A Z Z Z Z Z Z Z Z Z

>  <atom.prop.IS_HEAVY_ATOM>  (1907) 
1 0 0 0 1 0 0 1 0 0 0 1 0 0 0 1 1 0 0 0

>  <DIFUSE_FUNC_ATOM>  (1907) 
n/a

>  <FINAL_SINGLE_POINT_ENERGY>  (1907) 
0

>  <NONCOV_INTER_ENERGY_QM>  (1907) 
0

>  <FF_Energy>  (1907) 
-4.99

>  <QM_Energy>  (1907) 
-15.13

>  <source>  (1907) 
ETAM_MSM

>  <Index>  (1907) 
12257

$$$$
ETAM-pdb5zkk-A-LYS-167:MSM-pdb5zkk-A-MET-164
     RDKit          3D

 20 18  0  0  0  0  0  0  0  0999 V2000
    1.1793    0.9205   -0.0000 C   0  0  0  0  0  0  0  0  0  0  0  0
    1.0197    1.6353    0.6768 H   0  0  0  0  0  0  0  0  0  0  0  0
    1.2626    1.3246   -0.9076 H   0  0  0  0  0  0  0  0  0  0  0  0
    2.0832    0.3642    0.2481 H   0  0  0  0  0  0  0  0  0  0  0  0
    0.0000    0.0000    0.0000 C   0  0  0  0  0  0  0  0  0  0  0  0
    0.0060   -0.5452   -0.8163 H   0  0  0  0  0  0  0  0  0  0  0  0
    0.0053   -0.5461    0.8158 H   0  0  0  0  0  0  0  0  0  0  0  0
   -1.1793    0.8809    0.0000 N   0  0  0  0  0  4  0  0  0  0  0  0
   -1.5996    0.8866   -0.9100 H   0  0  0  0  0  0  0  0  0  0  0  0
   -1.8489    0.5516    0.6692 H   0  0  0  0  0  0  0  0  0  0  0  0
   -0.9053    1.8147    0.2410 H   0  0  0  0  0  0  0  0  0  0  0  0
    0.1763    4.0963    4.1618 C   0  0  0  0  0  0  0  0  0  0  0  0
   -0.6364    3.7380    4.6976 H   0  0  0  0  0  0  0  0  0  0  0  0
    0.2180    5.1009    4.4169 H   0  0  0  0  0  0  0  0  0  0  0  0
    1.0722    3.6150    4.5541 H   0  0  0  0  0  0  0  0  0  0  0  0
   -0.1145    3.9089    2.3673 S   0  0  0  0  0  0  0  0  0  0  0  0
    1.5339    4.1182    1.8712 C   0  0  0  0  0  0  0  0  0  0  0  0
    1.6114    4.1383    0.8633 H   0  0  0  0  0  0  0  0  0  0  0  0
    1.9143    4.9840    2.2269 H   0  0  0  0  0  0  0  0  0  0  0  0
    2.1147    3.3637    2.2102 H   0  0  0  0  0  0  0  0  0  0  0  0
  1  5  1  0
  5  8  1  0
  1  2  1  0
  1  3  1  0
  1  4  1  0
  5  6  1  0
  5  7  1  0
  8  9  1  0
  8 10  1  0
  8 11  1  0
 12 16  1  0
 16 17  1  0
 12 13  1  0
 12 14  1  0
 12 15  1  0
 17 18  1  0
 17 19  1  0
 17 20  1  0
M  CHG  1   8   1
M  END
>  <PDB_ID>  (1908) 
pdb5zkk

>  <RESIDUE_NAME>  (1908) 
LYS   MET

>  <FRAG_NAME>  (1908) 
ETAM   MSM

>  <FRAG_ATOM_NUM>  (1908) 
fragi: 11  fragj: 9

>  <atom.prop.CHAIN_ID>  (1908) 
A A A A A A A A A A A Z Z Z Z Z Z Z Z Z

>  <atom.prop.IS_HEAVY_ATOM>  (1908) 
1 0 0 0 1 0 0 1 0 0 0 1 0 0 0 1 1 0 0 0

>  <DIFUSE_FUNC_ATOM>  (1908) 
n/a

>  <FINAL_SINGLE_POINT_ENERGY>  (1908) 
0

>  <NONCOV_INTER_ENERGY_QM>  (1908) 
0

>  <FF_Energy>  (1908) 
-4.69

>  <QM_Energy>  (1908) 
-10.34

>  <source>  (1908) 
ETAM_MSM

>  <Index>  (1908) 
12265

$$$$
ETAM-pdb5zcr-B-LYS-719:MSM-pdb5zcr-B-MET-579
     RDKit          3D

 20 18  0  0  0  0  0  0  0  0999 V2000
    1.2516    0.8880    0.0000 C   0  0  0  0  0  0  0  0  0  0  0  0
    2.0525    0.2976    0.0630 H   0  0  0  0  0  0  0  0  0  0  0  0
    1.2067    1.4883    0.7934 H   0  0  0  0  0  0  0  0  0  0  0  0
    1.3288    1.4951   -0.9020 H   0  0  0  0  0  0  0  0  0  0  0  0
    0.0000    0.0000    0.0000 C   0  0  0  0  0  0  0  0  0  0  0  0
    0.0309   -0.5889   -0.8162 H   0  0  0  0  0  0  0  0  0  0  0  0
    0.0306   -0.5887    0.8160 H   0  0  0  0  0  0  0  0  0  0  0  0
   -1.2516    0.7833   -0.0000 N   0  0  0  0  0  4  0  0  0  0  0  0
   -1.3479    1.2660   -0.8723 H   0  0  0  0  0  0  0  0  0  0  0  0
   -2.0333    0.1703    0.1264 H   0  0  0  0  0  0  0  0  0  0  0  0
   -1.2311    1.4516    0.7458 H   0  0  0  0  0  0  0  0  0  0  0  0
   -1.3682    3.0119   -4.0308 C   0  0  0  0  0  0  0  0  0  0  0  0
   -1.4751    3.6610   -3.2565 H   0  0  0  0  0  0  0  0  0  0  0  0
   -2.0437    3.2821   -4.7403 H   0  0  0  0  0  0  0  0  0  0  0  0
   -0.3646    3.1196   -4.4423 H   0  0  0  0  0  0  0  0  0  0  0  0
   -1.6555    1.3154   -3.4874 S   0  0  0  0  0  0  0  0  0  0  0  0
   -3.4067    1.3947   -3.1361 C   0  0  0  0  0  0  0  0  0  0  0  0
   -3.7622    2.2948   -3.3942 H   0  0  0  0  0  0  0  0  0  0  0  0
   -3.8876    0.6877   -3.6569 H   0  0  0  0  0  0  0  0  0  0  0  0
   -3.5618    1.2472   -2.1570 H   0  0  0  0  0  0  0  0  0  0  0  0
  1  5  1  0
  5  8  1  0
  1  2  1  0
  1  3  1  0
  1  4  1  0
  5  6  1  0
  5  7  1  0
  8  9  1  0
  8 10  1  0
  8 11  1  0
 12 16  1  0
 16 17  1  0
 12 13  1  0
 12 14  1  0
 12 15  1  0
 17 18  1  0
 17 19  1  0
 17 20  1  0
M  CHG  1   8   1
M  END
>  <PDB_ID>  (1909) 
pdb5zcr

>  <RESIDUE_NAME>  (1909) 
LYS   MET

>  <FRAG_NAME>  (1909) 
ETAM   MSM

>  <FRAG_ATOM_NUM>  (1909) 
fragi: 11  fragj: 9

>  <atom.prop.CHAIN_ID>  (1909) 
A A A A A A A A A A A Z Z Z Z Z Z Z Z Z

>  <atom.prop.IS_HEAVY_ATOM>  (1909) 
1 0 0 0 1 0 0 1 0 0 0 1 0 0 0 1 1 0 0 0

>  <DIFUSE_FUNC_ATOM>  (1909) 
n/a

>  <FINAL_SINGLE_POINT_ENERGY>  (1909) 
0

>  <NONCOV_INTER_ENERGY_QM>  (1909) 
0

>  <FF_Energy>  (1909) 
-4.62

>  <QM_Energy>  (1909) 
-13.67

>  <source>  (1909) 
ETAM_MSM

>  <Index>  (1909) 
12275

$$$$
ETAM-pdb5zsz-A-LYS-50:MSM-pdb5zsz-A-MET-33
     RDKit          3D

 20 18  0  0  0  0  0  0  0  0999 V2000
    1.2452    0.8759   -0.0000 C   0  0  0  0  0  0  0  0  0  0  0  0
    2.0458    0.2843    0.0403 H   0  0  0  0  0  0  0  0  0  0  0  0
    1.2142    1.4658    0.8018 H   0  0  0  0  0  0  0  0  0  0  0  0
    1.3015    1.4923   -0.8972 H   0  0  0  0  0  0  0  0  0  0  0  0
    0.0000    0.0000    0.0000 C   0  0  0  0  0  0  0  0  0  0  0  0
    0.0146   -0.5835   -0.8160 H   0  0  0  0  0  0  0  0  0  0  0  0
    0.0144   -0.5836    0.8161 H   0  0  0  0  0  0  0  0  0  0  0  0
   -1.2452    0.8110    0.0000 N   0  0  0  0  0  4  0  0  0  0  0  0
   -2.0374    0.2046    0.0649 H   0  0  0  0  0  0  0  0  0  0  0  0
   -1.2364    1.4338    0.7817 H   0  0  0  0  0  0  0  0  0  0  0  0
   -1.2982    1.3391   -0.8475 H   0  0  0  0  0  0  0  0  0  0  0  0
   -2.3047   -0.6589   -3.5135 C   0  0  0  0  0  0  0  0  0  0  0  0
   -1.3111   -0.8568   -3.4160 H   0  0  0  0  0  0  0  0  0  0  0  0
   -2.5107   -0.6871   -4.5097 H   0  0  0  0  0  0  0  0  0  0  0  0
   -2.8777   -1.4333   -3.0036 H   0  0  0  0  0  0  0  0  0  0  0  0
   -2.6948    0.9630   -2.8343 S   0  0  0  0  0  0  0  0  0  0  0  0
   -1.5560    1.9812   -3.7744 C   0  0  0  0  0  0  0  0  0  0  0  0
   -1.2828    1.4964   -4.6062 H   0  0  0  0  0  0  0  0  0  0  0  0
   -2.0026    2.8413   -4.0226 H   0  0  0  0  0  0  0  0  0  0  0  0
   -0.7452    2.1750   -3.2208 H   0  0  0  0  0  0  0  0  0  0  0  0
  1  5  1  0
  5  8  1  0
  1  2  1  0
  1  3  1  0
  1  4  1  0
  5  6  1  0
  5  7  1  0
  8  9  1  0
  8 10  1  0
  8 11  1  0
 12 16  1  0
 16 17  1  0
 12 13  1  0
 12 14  1  0
 12 15  1  0
 17 18  1  0
 17 19  1  0
 17 20  1  0
M  CHG  1   8   1
M  END
>  <PDB_ID>  (1910) 
pdb5zsz

>  <RESIDUE_NAME>  (1910) 
LYS   MET

>  <FRAG_NAME>  (1910) 
ETAM   MSM

>  <FRAG_ATOM_NUM>  (1910) 
fragi: 11  fragj: 9

>  <atom.prop.CHAIN_ID>  (1910) 
A A A A A A A A A A A Z Z Z Z Z Z Z Z Z

>  <atom.prop.IS_HEAVY_ATOM>  (1910) 
1 0 0 0 1 0 0 1 0 0 0 1 0 0 0 1 1 0 0 0

>  <DIFUSE_FUNC_ATOM>  (1910) 
n/a

>  <FINAL_SINGLE_POINT_ENERGY>  (1910) 
0

>  <NONCOV_INTER_ENERGY_QM>  (1910) 
0

>  <FF_Energy>  (1910) 
-4.71

>  <QM_Energy>  (1910) 
-13.17

>  <source>  (1910) 
ETAM_MSM

>  <Index>  (1910) 
12280

$$$$
ETAM-pdb5zqk-B-LYS-248:MSM-pdb5zqk-B-MET-245
     RDKit          3D

 20 18  0  0  0  0  0  0  0  0999 V2000
    1.2369    0.8599   -0.0000 C   0  0  0  0  0  0  0  0  0  0  0  0
    1.1328    1.5777   -0.6893 H   0  0  0  0  0  0  0  0  0  0  0  0
    2.0273    0.2909   -0.2300 H   0  0  0  0  0  0  0  0  0  0  0  0
    1.4188    1.3315    0.9657 H   0  0  0  0  0  0  0  0  0  0  0  0
    0.0000    0.0000    0.0000 C   0  0  0  0  0  0  0  0  0  0  0  0
    0.0021   -0.5838   -0.8159 H   0  0  0  0  0  0  0  0  0  0  0  0
    0.0020   -0.5842    0.8160 H   0  0  0  0  0  0  0  0  0  0  0  0
   -1.2369    0.8267   -0.0000 N   0  0  0  0  0  4  0  0  0  0  0  0
   -1.2107    1.4639   -0.7705 H   0  0  0  0  0  0  0  0  0  0  0  0
   -2.0344    0.2303   -0.0862 H   0  0  0  0  0  0  0  0  0  0  0  0
   -1.2936    1.3394    0.8563 H   0  0  0  0  0  0  0  0  0  0  0  0
   -0.7685   -1.6761    4.3466 C   0  0  0  0  0  0  0  0  0  0  0  0
   -1.3341   -2.4974    4.6409 H   0  0  0  0  0  0  0  0  0  0  0  0
   -0.5294   -1.2108    5.2454 H   0  0  0  0  0  0  0  0  0  0  0  0
    0.1538   -2.0421    3.8957 H   0  0  0  0  0  0  0  0  0  0  0  0
   -1.7586   -0.5693    3.3102 S   0  0  0  0  0  0  0  0  0  0  0  0
   -1.4278    0.9650    4.0460 C   0  0  0  0  0  0  0  0  0  0  0  0
   -2.1973    1.2632    4.6299 H   0  0  0  0  0  0  0  0  0  0  0  0
   -0.6003    0.9209    4.6258 H   0  0  0  0  0  0  0  0  0  0  0  0
   -1.2762    1.6797    3.3467 H   0  0  0  0  0  0  0  0  0  0  0  0
  1  5  1  0
  5  8  1  0
  1  2  1  0
  1  3  1  0
  1  4  1  0
  5  6  1  0
  5  7  1  0
  8  9  1  0
  8 10  1  0
  8 11  1  0
 12 16  1  0
 16 17  1  0
 12 13  1  0
 12 14  1  0
 12 15  1  0
 17 18  1  0
 17 19  1  0
 17 20  1  0
M  CHG  1   8   1
M  END
>  <PDB_ID>  (1911) 
pdb5zqk

>  <RESIDUE_NAME>  (1911) 
LYS   MET

>  <FRAG_NAME>  (1911) 
ETAM   MSM

>  <FRAG_ATOM_NUM>  (1911) 
fragi: 11  fragj: 9

>  <atom.prop.CHAIN_ID>  (1911) 
A A A A A A A A A A A Z Z Z Z Z Z Z Z Z

>  <atom.prop.IS_HEAVY_ATOM>  (1911) 
1 0 0 0 1 0 0 1 0 0 0 1 0 0 0 1 1 0 0 0

>  <DIFUSE_FUNC_ATOM>  (1911) 
n/a

>  <FINAL_SINGLE_POINT_ENERGY>  (1911) 
0

>  <NONCOV_INTER_ENERGY_QM>  (1911) 
0

>  <FF_Energy>  (1911) 
-4.85

>  <QM_Energy>  (1911) 
-10.48

>  <source>  (1911) 
ETAM_MSM

>  <Index>  (1911) 
12281

$$$$
ETAM-pdb5zw2-A-LYS-156:MSM-pdb5zw2-A-MET-139
     RDKit          3D

 20 18  0  0  0  0  0  0  0  0999 V2000
    1.2761    0.8145   -0.0000 C   0  0  0  0  0  0  0  0  0  0  0  0
    1.3214    1.3348    0.8623 H   0  0  0  0  0  0  0  0  0  0  0  0
    1.2335    1.4706   -0.7634 H   0  0  0  0  0  0  0  0  0  0  0  0
    2.1846    0.2202   -0.0982 H   0  0  0  0  0  0  0  0  0  0  0  0
    0.0000    0.0000    0.0000 C   0  0  0  0  0  0  0  0  0  0  0  0
   -0.0446   -0.5728   -0.8163 H   0  0  0  0  0  0  0  0  0  0  0  0
   -0.0450   -0.5732    0.8164 H   0  0  0  0  0  0  0  0  0  0  0  0
   -1.2761    0.9007    0.0000 N   0  0  0  0  0  4  0  0  0  0  0  0
   -1.4352    1.1854    0.9328 H   0  0  0  0  0  0  0  0  0  0  0  0
   -1.0917    1.6726   -0.5880 H   0  0  0  0  0  0  0  0  0  0  0  0
   -2.0227    0.3533   -0.3443 H   0  0  0  0  0  0  0  0  0  0  0  0
   -5.4579    2.4924   -0.4976 C   0  0  0  0  0  0  0  0  0  0  0  0
   -6.2514    2.9188   -0.0350 H   0  0  0  0  0  0  0  0  0  0  0  0
   -5.7631    2.2054   -1.4199 H   0  0  0  0  0  0  0  0  0  0  0  0
   -4.6434    3.2120   -0.5805 H   0  0  0  0  0  0  0  0  0  0  0  0
   -4.9231    0.9942    0.4637 S   0  0  0  0  0  0  0  0  0  0  0  0
   -4.8620    1.5716    2.1866 C   0  0  0  0  0  0  0  0  0  0  0  0
   -4.4794    2.4921    2.2046 H   0  0  0  0  0  0  0  0  0  0  0  0
   -5.7872    1.5788    2.5573 H   0  0  0  0  0  0  0  0  0  0  0  0
   -4.2865    0.9517    2.7140 H   0  0  0  0  0  0  0  0  0  0  0  0
  1  5  1  0
  5  8  1  0
  1  2  1  0
  1  3  1  0
  1  4  1  0
  5  6  1  0
  5  7  1  0
  8  9  1  0
  8 10  1  0
  8 11  1  0
 12 16  1  0
 16 17  1  0
 12 13  1  0
 12 14  1  0
 12 15  1  0
 17 18  1  0
 17 19  1  0
 17 20  1  0
M  CHG  1   8   1
M  END
>  <PDB_ID>  (1912) 
pdb5zw2

>  <RESIDUE_NAME>  (1912) 
LYS   MET

>  <FRAG_NAME>  (1912) 
ETAM   MSM

>  <FRAG_ATOM_NUM>  (1912) 
fragi: 11  fragj: 9

>  <atom.prop.CHAIN_ID>  (1912) 
A A A A A A A A A A A Z Z Z Z Z Z Z Z Z

>  <atom.prop.IS_HEAVY_ATOM>  (1912) 
1 0 0 0 1 0 0 1 0 0 0 1 0 0 0 1 1 0 0 0

>  <DIFUSE_FUNC_ATOM>  (1912) 
n/a

>  <FINAL_SINGLE_POINT_ENERGY>  (1912) 
0

>  <NONCOV_INTER_ENERGY_QM>  (1912) 
0

>  <FF_Energy>  (1912) 
-3.8

>  <QM_Energy>  (1912) 
-10.68

>  <source>  (1912) 
ETAM_MSM

>  <Index>  (1912) 
12285

$$$$
ETAM-pdb5zi7-B-LYS-857:MSM-pdb5zi7-B-MET-854
     RDKit          3D

 20 18  0  0  0  0  0  0  0  0999 V2000
    1.2527    0.8840    0.0000 C   0  0  0  0  0  0  0  0  0  0  0  0
    1.5812    0.9611    0.9362 H   0  0  0  0  0  0  0  0  0  0  0  0
    1.0030    1.7804   -0.3523 H   0  0  0  0  0  0  0  0  0  0  0  0
    2.0475    0.4692   -0.6201 H   0  0  0  0  0  0  0  0  0  0  0  0
    0.0000    0.0000    0.0000 C   0  0  0  0  0  0  0  0  0  0  0  0
    0.0160   -0.5799   -0.8159 H   0  0  0  0  0  0  0  0  0  0  0  0
    0.0157   -0.5796    0.8168 H   0  0  0  0  0  0  0  0  0  0  0  0
   -1.2527    0.8156   -0.0000 N   0  0  0  0  0  4  0  0  0  0  0  0
   -1.0186    1.7773   -0.1334 H   0  0  0  0  0  0  0  0  0  0  0  0
   -1.8461    0.5062   -0.7416 H   0  0  0  0  0  0  0  0  0  0  0  0
   -1.7195    0.7012    0.8750 H   0  0  0  0  0  0  0  0  0  0  0  0
   -2.6249   -0.3232   -5.2408 C   0  0  0  0  0  0  0  0  0  0  0  0
   -3.5070   -0.7030   -5.5860 H   0  0  0  0  0  0  0  0  0  0  0  0
   -1.8992   -0.9804   -5.5296 H   0  0  0  0  0  0  0  0  0  0  0  0
   -2.4426    0.6412   -5.7152 H   0  0  0  0  0  0  0  0  0  0  0  0
   -2.6655   -0.1941   -3.4194 S   0  0  0  0  0  0  0  0  0  0  0  0
   -4.1113    0.7900   -3.1249 C   0  0  0  0  0  0  0  0  0  0  0  0
   -4.6095    0.4402   -2.3260 H   0  0  0  0  0  0  0  0  0  0  0  0
   -3.8496    1.7437   -2.9524 H   0  0  0  0  0  0  0  0  0  0  0  0
   -4.7185    0.7588   -3.9243 H   0  0  0  0  0  0  0  0  0  0  0  0
  1  5  1  0
  5  8  1  0
  1  2  1  0
  1  3  1  0
  1  4  1  0
  5  6  1  0
  5  7  1  0
  8  9  1  0
  8 10  1  0
  8 11  1  0
 12 16  1  0
 16 17  1  0
 12 13  1  0
 12 14  1  0
 12 15  1  0
 17 18  1  0
 17 19  1  0
 17 20  1  0
M  CHG  1   8   1
M  END
>  <PDB_ID>  (1913) 
pdb5zi7

>  <RESIDUE_NAME>  (1913) 
LYS   MET

>  <FRAG_NAME>  (1913) 
ETAM   MSM

>  <FRAG_ATOM_NUM>  (1913) 
fragi: 11  fragj: 9

>  <atom.prop.CHAIN_ID>  (1913) 
A A A A A A A A A A A Z Z Z Z Z Z Z Z Z

>  <atom.prop.IS_HEAVY_ATOM>  (1913) 
1 0 0 0 1 0 0 1 0 0 0 1 0 0 0 1 1 0 0 0

>  <DIFUSE_FUNC_ATOM>  (1913) 
n/a

>  <FINAL_SINGLE_POINT_ENERGY>  (1913) 
0

>  <NONCOV_INTER_ENERGY_QM>  (1913) 
0

>  <FF_Energy>  (1913) 
-4.59

>  <QM_Energy>  (1913) 
-9.94

>  <source>  (1913) 
ETAM_MSM

>  <Index>  (1913) 
12289

$$$$
ETAM-pdb5zza-A-LYS-291:MSM-pdb5zza-A-MET-325
     RDKit          3D

 20 18  0  0  0  0  0  0  0  0999 V2000
    1.2497    0.8624   -0.0000 C   0  0  0  0  0  0  0  0  0  0  0  0
    1.0800    1.6643   -0.5677 H   0  0  0  0  0  0  0  0  0  0  0  0
    2.0020    0.3291   -0.3792 H   0  0  0  0  0  0  0  0  0  0  0  0
    1.5156    1.1883    1.0056 H   0  0  0  0  0  0  0  0  0  0  0  0
    0.0000    0.0000    0.0000 C   0  0  0  0  0  0  0  0  0  0  0  0
    0.0074   -0.5871   -0.8162 H   0  0  0  0  0  0  0  0  0  0  0  0
    0.0072   -0.5863    0.8159 H   0  0  0  0  0  0  0  0  0  0  0  0
   -1.2497    0.8156   -0.0000 N   0  0  0  0  0  4  0  0  0  0  0  0
   -1.4338    1.1364   -0.9283 H   0  0  0  0  0  0  0  0  0  0  0  0
   -2.0106    0.2524    0.3188 H   0  0  0  0  0  0  0  0  0  0  0  0
   -1.1326    1.5981    0.6088 H   0  0  0  0  0  0  0  0  0  0  0  0
   -1.4870    2.9741   -3.8668 C   0  0  0  0  0  0  0  0  0  0  0  0
   -1.8083    3.9465   -3.9877 H   0  0  0  0  0  0  0  0  0  0  0  0
   -2.2957    2.4803   -3.4587 H   0  0  0  0  0  0  0  0  0  0  0  0
   -1.2958    2.5549   -4.8547 H   0  0  0  0  0  0  0  0  0  0  0  0
   -0.0687    2.9036   -2.7577 S   0  0  0  0  0  0  0  0  0  0  0  0
    1.0217    4.0976   -3.5236 C   0  0  0  0  0  0  0  0  0  0  0  0
    0.8768    4.0988   -4.5145 H   0  0  0  0  0  0  0  0  0  0  0  0
    0.8300    5.0109   -3.1594 H   0  0  0  0  0  0  0  0  0  0  0  0
    1.9743    3.8571   -3.3289 H   0  0  0  0  0  0  0  0  0  0  0  0
  1  5  1  0
  5  8  1  0
  1  2  1  0
  1  3  1  0
  1  4  1  0
  5  6  1  0
  5  7  1  0
  8  9  1  0
  8 10  1  0
  8 11  1  0
 12 16  1  0
 16 17  1  0
 12 13  1  0
 12 14  1  0
 12 15  1  0
 17 18  1  0
 17 19  1  0
 17 20  1  0
M  CHG  1   8   1
M  END
>  <PDB_ID>  (1914) 
pdb5zza

>  <RESIDUE_NAME>  (1914) 
LYS   MET

>  <FRAG_NAME>  (1914) 
ETAM   MSM

>  <FRAG_ATOM_NUM>  (1914) 
fragi: 11  fragj: 9

>  <atom.prop.CHAIN_ID>  (1914) 
A A A A A A A A A A A Z Z Z Z Z Z Z Z Z

>  <atom.prop.IS_HEAVY_ATOM>  (1914) 
1 0 0 0 1 0 0 1 0 0 0 1 0 0 0 1 1 0 0 0

>  <DIFUSE_FUNC_ATOM>  (1914) 
n/a

>  <FINAL_SINGLE_POINT_ENERGY>  (1914) 
0

>  <NONCOV_INTER_ENERGY_QM>  (1914) 
0

>  <FF_Energy>  (1914) 
-5.0

>  <QM_Energy>  (1914) 
-10.94

>  <source>  (1914) 
ETAM_MSM

>  <Index>  (1914) 
12298

$$$$
ETAM-pdb5zyf-B-LYS-47:MSM-pdb5zyf-B-MET-58
     RDKit          3D

 20 18  0  0  0  0  0  0  0  0999 V2000
    1.2348    0.8595    0.0000 C   0  0  0  0  0  0  0  0  0  0  0  0
    1.3710    1.2426    0.9170 H   0  0  0  0  0  0  0  0  0  0  0  0
    1.1149    1.6105   -0.6532 H   0  0  0  0  0  0  0  0  0  0  0  0
    2.1416    0.3200   -0.2738 H   0  0  0  0  0  0  0  0  0  0  0  0
    0.0000    0.0000    0.0000 C   0  0  0  0  0  0  0  0  0  0  0  0
   -0.0047   -0.5788   -0.8162 H   0  0  0  0  0  0  0  0  0  0  0  0
   -0.0048   -0.5785    0.8160 H   0  0  0  0  0  0  0  0  0  0  0  0
   -1.2348    0.8435   -0.0000 N   0  0  0  0  0  4  0  0  0  0  0  0
   -2.0147    0.2834   -0.2719 H   0  0  0  0  0  0  0  0  0  0  0  0
   -1.3838    1.2070    0.9182 H   0  0  0  0  0  0  0  0  0  0  0  0
   -1.1180    1.5954   -0.6459 H   0  0  0  0  0  0  0  0  0  0  0  0
   -0.7002    5.7408    1.6048 C   0  0  0  0  0  0  0  0  0  0  0  0
   -0.1187    6.3108    2.2182 H   0  0  0  0  0  0  0  0  0  0  0  0
   -1.4824    5.4152    2.1706 H   0  0  0  0  0  0  0  0  0  0  0  0
   -1.0933    6.3823    0.8162 H   0  0  0  0  0  0  0  0  0  0  0  0
    0.2301    4.3596    0.9277 S   0  0  0  0  0  0  0  0  0  0  0  0
    1.6419    5.2110    0.2417 C   0  0  0  0  0  0  0  0  0  0  0  0
    1.7081    6.1292    0.6362 H   0  0  0  0  0  0  0  0  0  0  0  0
    2.4786    4.7016    0.4513 H   0  0  0  0  0  0  0  0  0  0  0  0
    1.5414    5.2857   -0.7528 H   0  0  0  0  0  0  0  0  0  0  0  0
  1  5  1  0
  5  8  1  0
  1  2  1  0
  1  3  1  0
  1  4  1  0
  5  6  1  0
  5  7  1  0
  8  9  1  0
  8 10  1  0
  8 11  1  0
 12 16  1  0
 16 17  1  0
 12 13  1  0
 12 14  1  0
 12 15  1  0
 17 18  1  0
 17 19  1  0
 17 20  1  0
M  CHG  1   8   1
M  END
>  <PDB_ID>  (1915) 
pdb5zyf

>  <RESIDUE_NAME>  (1915) 
LYS   MET

>  <FRAG_NAME>  (1915) 
ETAM   MSM

>  <FRAG_ATOM_NUM>  (1915) 
fragi: 11  fragj: 9

>  <atom.prop.CHAIN_ID>  (1915) 
A A A A A A A A A A A Z Z Z Z Z Z Z Z Z

>  <atom.prop.IS_HEAVY_ATOM>  (1915) 
1 0 0 0 1 0 0 1 0 0 0 1 0 0 0 1 1 0 0 0

>  <DIFUSE_FUNC_ATOM>  (1915) 
n/a

>  <FINAL_SINGLE_POINT_ENERGY>  (1915) 
0

>  <NONCOV_INTER_ENERGY_QM>  (1915) 
0

>  <FF_Energy>  (1915) 
-5.09

>  <QM_Energy>  (1915) 
-10.83

>  <source>  (1915) 
ETAM_MSM

>  <Index>  (1915) 
12299

$$$$
ETAM-pdb5zzb-D-LYS-284:MSM-pdb5zzb-D-MET-176
     RDKit          3D

 20 18  0  0  0  0  0  0  0  0999 V2000
    1.2345    0.8879    0.0000 C   0  0  0  0  0  0  0  0  0  0  0  0
    2.0481    0.3000   -0.0201 H   0  0  0  0  0  0  0  0  0  0  0  0
    1.2404    1.4220    0.8498 H   0  0  0  0  0  0  0  0  0  0  0  0
    1.2788    1.5744   -0.8455 H   0  0  0  0  0  0  0  0  0  0  0  0
    0.0000    0.0000    0.0000 C   0  0  0  0  0  0  0  0  0  0  0  0
    0.0126   -0.5740   -0.8164 H   0  0  0  0  0  0  0  0  0  0  0  0
    0.0131   -0.5742    0.8165 H   0  0  0  0  0  0  0  0  0  0  0  0
   -1.2345    0.8283   -0.0000 N   0  0  0  0  0  4  0  0  0  0  0  0
   -1.4006    1.1777    0.9218 H   0  0  0  0  0  0  0  0  0  0  0  0
   -1.1208    1.5941   -0.6322 H   0  0  0  0  0  0  0  0  0  0  0  0
   -2.0108    0.2683   -0.2895 H   0  0  0  0  0  0  0  0  0  0  0  0
    3.7017   -3.6796    2.3311 C   0  0  0  0  0  0  0  0  0  0  0  0
    4.3624   -2.8864    2.4468 H   0  0  0  0  0  0  0  0  0  0  0  0
    4.1095   -4.2250    1.5462 H   0  0  0  0  0  0  0  0  0  0  0  0
    3.7490   -4.2928    3.2309 H   0  0  0  0  0  0  0  0  0  0  0  0
    2.0581   -3.0749    1.8945 S   0  0  0  0  0  0  0  0  0  0  0  0
    2.5900   -2.2186    0.4257 C   0  0  0  0  0  0  0  0  0  0  0  0
    3.5686   -2.3778    0.2737 H   0  0  0  0  0  0  0  0  0  0  0  0
    2.0765   -2.5524   -0.3676 H   0  0  0  0  0  0  0  0  0  0  0  0
    2.4309   -1.2339    0.5284 H   0  0  0  0  0  0  0  0  0  0  0  0
  1  5  1  0
  5  8  1  0
  1  2  1  0
  1  3  1  0
  1  4  1  0
  5  6  1  0
  5  7  1  0
  8  9  1  0
  8 10  1  0
  8 11  1  0
 12 16  1  0
 16 17  1  0
 12 13  1  0
 12 14  1  0
 12 15  1  0
 17 18  1  0
 17 19  1  0
 17 20  1  0
M  CHG  1   8   1
M  END
>  <PDB_ID>  (1916) 
pdb5zzb

>  <RESIDUE_NAME>  (1916) 
LYS   MET

>  <FRAG_NAME>  (1916) 
ETAM   MSM

>  <FRAG_ATOM_NUM>  (1916) 
fragi: 11  fragj: 9

>  <atom.prop.CHAIN_ID>  (1916) 
A A A A A A A A A A A Z Z Z Z Z Z Z Z Z

>  <atom.prop.IS_HEAVY_ATOM>  (1916) 
1 0 0 0 1 0 0 1 0 0 0 1 0 0 0 1 1 0 0 0

>  <DIFUSE_FUNC_ATOM>  (1916) 
n/a

>  <FINAL_SINGLE_POINT_ENERGY>  (1916) 
0

>  <NONCOV_INTER_ENERGY_QM>  (1916) 
0

>  <FF_Energy>  (1916) 
6.24

>  <QM_Energy>  (1916) 
-0.11

>  <source>  (1916) 
ETAM_MSM

>  <Index>  (1916) 
12306

$$$$
