@<TRIPOS>MOLECULE
ETOH-pdb9ldb-A-SER-139:MBZ-pdb9ldb-A-PHE-120
 24 23 0 0 0
SMALL
GASTEIGER

@<TRIPOS>ATOM
      1 C          -1.4798   -5.7285   -2.3105 C.3     1  UNL1       -0.0418
      2 H          -2.2920   -6.3221   -2.4031 H       1  UNL1        0.0252
      3 H          -0.7631   -6.2439   -1.6710 H       1  UNL1        0.0252
      4 H          -1.1030   -5.5327   -3.3144 H       1  UNL1        0.0252
      5 C          -1.9372   -4.4221   -1.6948 C.3     1  UNL1        0.0414
      6 H          -1.2778   -3.6975   -1.9336 H       1  UNL1        0.0554
      7 H          -2.8324   -4.1706   -2.0861 H       1  UNL1        0.0554
      8 O          -2.0644   -4.4623   -0.2799 O.3     1  UNL1       -0.3953
      9 H          -2.9319   -4.0450   -0.0136 H       1  UNL1        0.2094
     10 C          -0.0556    2.9125    0.0824 C.3     1  UNL1       -0.0397
     11 H          -0.3306    3.2567   -0.8014 H       1  UNL1        0.0278
     12 H           0.8460    3.2313    0.3306 H       1  UNL1        0.0278
     13 H          -0.7578    3.2995    0.8208 H       1  UNL1        0.0278
     14 C          -0.0215    1.4166    0.0137 C.ar    1  UNL1       -0.0504
     15 C          -1.1936    0.6671   -0.0194 C.ar    1  UNL1       -0.0588
     16 H          -2.0808    1.1575   -0.0612 H       1  UNL1        0.0620
     17 C          -1.2137   -0.7199   -0.0000 C.ar    1  UNL1       -0.0615
     18 H          -2.0728   -1.2158    0.0324 H       1  UNL1        0.0618
     19 C           0.0101   -1.4002   -0.0251 C.ar    1  UNL1       -0.0617
     20 H           0.0201   -2.3973   -0.0616 H       1  UNL1        0.0618
     21 C           1.2137   -0.6863    0.0000 C.ar    1  UNL1       -0.0615
     22 H           2.0979   -1.1749   -0.0020 H       1  UNL1        0.0618
     23 C           1.2050    0.7226    0.0307 C.ar    1  UNL1       -0.0588
     24 H           2.0559    1.2222    0.0632 H       1  UNL1        0.0620
@<TRIPOS>BOND
     1     1     5    1
     2     5     8    1
     3     1     2    1
     4     1     3    1
     5     1     4    1
     6     5     6    1
     7     5     7    1
     8     8     9    1
     9    10    14    1
    10    14    15   ar
    11    15    17   ar
    12    17    19   ar
    13    19    21   ar
    14    21    23   ar
    15    23    14   ar
    16    10    11    1
    17    10    12    1
    18    10    13    1
    19    15    16    1
    20    17    18    1
    21    19    20    1
    22    21    22    1
    23    23    24    1
