@<TRIPOS>MOLECULE
1tolu.pdb
 15 15 0 0 0
SMALL
GASTEIGER

@<TRIPOS>ATOM
      1  C         -0.0560    2.9130    0.0820 C.3     1  TOL1       -0.0397
      2  H         -0.3310    3.2570   -0.8010 H       1  TOL1        0.0278
      3  H          0.8460    3.2310    0.3310 H       1  TOL1        0.0278
      4  H         -0.7580    3.3000    0.8210 H       1  TOL1        0.0278
      5  C         -0.0210    1.4170    0.0140 C.ar    1  TOL1       -0.0504
      6  C         -1.1940    0.6670   -0.0190 C.ar    1  TOL1       -0.0588
      7  H         -2.0810    1.1570   -0.0610 H       1  TOL1        0.0620
      8  C         -1.2140   -0.7200    0.0000 C.ar    1  TOL1       -0.0615
      9  H         -2.0730   -1.2160    0.0320 H       1  TOL1        0.0618
     10  C          0.0100   -1.4000   -0.0250 C.ar    1  TOL1       -0.0617
     11  H          0.0200   -2.3970   -0.0620 H       1  TOL1        0.0618
     12  C          1.2140   -0.6860    0.0000 C.ar    1  TOL1       -0.0615
     13  H          2.0980   -1.1750   -0.0020 H       1  TOL1        0.0618
     14  C          1.2050    0.7230    0.0310 C.ar    1  TOL1       -0.0588
     15  H          2.0560    1.2220    0.0630 H       1  TOL1        0.0620
@<TRIPOS>BOND
     1     2     1    1
     2    11    10    1
     3     7     6    1
     4    10     8   ar
     5    10    12   ar
     6     6     8   ar
     7     6     5   ar
     8    13    12    1
     9     8     9    1
    10    12    14   ar
    11     5    14   ar
    12     5     1    1
    13    14    15    1
    14     1     3    1
    15     1     4    1
