@<TRIPOS>MOLECULE
ETOH.pdb
 9 8 0 0 0
SMALL
GASTEIGER

@<TRIPOS>ATOM
      1  C1        -0.0360   -0.0010   -3.4630 C.3     1  ETO1       -0.0418
      2  H1        -0.6480    0.3820   -2.7740 H       1  ETO1        0.0252
      3  H2         0.9070    0.0510   -3.1430 H       1  ETO1        0.0252
      4  H3        -0.1320    0.5040   -4.3180 H       1  ETO1        0.0252
      5  C2        -0.4090   -1.4830   -3.7050 C.3     1  ETO1        0.0414
      6  H4         0.2280   -2.0830   -3.1890 H       1  ETO1        0.0554
      7  H5        -0.3610   -1.7300   -4.7650 H       1  ETO1        0.0554
      8  O1        -1.7410   -1.7550   -3.2490 O.3     1  ETO1       -0.3953
      9  H6        -2.4030   -1.1870   -3.7470 H       1  ETO1        0.2094
@<TRIPOS>BOND
     1     7     5    1
     2     4     1    1
     3     9     8    1
     4     5     1    1
     5     5     8    1
     6     5     6    1
     7     1     3    1
     8     1     2    1
