@<TRIPOS>MOLECULE
TOLU.pdb
 15 15 0 0 0
SMALL
GASTEIGER

@<TRIPOS>ATOM
      1  C3         0.0130    2.9240    0.0780 C.3     1  TOL1       -0.0397
      2  H7         0.9000    3.2050    0.4340 H       1  TOL1        0.0278
      3  H8        -0.7110    3.1990    0.7040 H       1  TOL1        0.0278
      4  H9        -0.1460    3.4580   -0.8590 H       1  TOL1        0.0278
      5  C4         0.0030    1.4160   -0.0090 C.ar    1  TOL1       -0.0504
      6  C5        -1.2030    0.7060    0.0130 C.ar    1  TOL1       -0.0588
      7  H10       -2.0660    1.1890    0.0380 H       1  TOL1        0.0620
      8  C6        -1.2090   -0.7090   -0.0000 C.ar    1  TOL1       -0.0615
      9  H11       -2.0840   -1.1930    0.0030 H       1  TOL1        0.0618
     10  C7         0.0010   -1.4090   -0.0150 C.ar    1  TOL1       -0.0617
     11  H12       -0.0010   -2.4030   -0.0360 H       1  TOL1        0.0618
     12  C8         1.2090   -0.7050   -0.0000 C.ar    1  TOL1       -0.0615
     13  H13        2.0890   -1.1960    0.0040 H       1  TOL1        0.0618
     14  C9         1.1990    0.7000    0.0110 C.ar    1  TOL1       -0.0588
     15  H14        2.0700    1.1920    0.0320 H       1  TOL1        0.0620
@<TRIPOS>BOND
     1     4     1    1
     2    11    10    1
     3    10     8   ar
     4    10    12   ar
     5     5    14   ar
     6     5     6   ar
     7     5     1    1
     8     8     9    1
     9     8     6   ar
    10    12    13    1
    11    12    14   ar
    12    14    15    1
    13     6     7    1
    14     1     2    1
    15     1     3    1
