MIMM-pdb1jji-A-HIP-285:N1PA-pdb1jji-A-PRO-189
     RDKit          3D

 32 32  0  0  0  0  0  0  0  0999 V2000
   -0.6643    2.7427   -0.0169 C   0  0  0  0  0  0  0  0  0  0  0  0
   -1.4539    2.8039   -0.6375 H   0  0  0  0  0  0  0  0  0  0  0  0
    0.0748    3.3179   -0.3837 H   0  0  0  0  0  0  0  0  0  0  0  0
   -0.9531    3.1193    0.9644 H   0  0  0  0  0  0  0  0  0  0  0  0
   -0.1876    1.3191   -0.0042 C   0  0  0  0  0  0  0  0  0  0  0  0
    1.0577    0.8015   -0.0000 C   0  0  0  0  0  0  0  0  0  0  0  0
    1.9152    1.3086    0.0034 H   0  0  0  0  0  0  0  0  0  0  0  0
    0.9264   -0.5713    0.0002 N   0  0  0  0  0  4  0  0  0  0  0  0
    1.6803   -1.2265   -0.0012 H   0  0  0  0  0  0  0  0  0  0  0  0
   -0.3595   -0.8726    0.0011 C   0  0  0  0  0  0  0  0  0  0  0  0
   -0.7388   -1.7964    0.0040 H   0  0  0  0  0  0  0  0  0  0  0  0
   -1.0577    0.2471    0.0000 N   0  0  0  0  0  0  0  0  0  0  0  0
   -2.0529    0.3135    0.0008 H   0  0  0  0  0  0  0  0  0  0  0  0
   -3.5481   -2.8652    2.6811 C   0  0  0  0  0  0  0  0  0  0  0  0
   -4.4853   -2.9285    2.3272 H   0  0  0  0  0  0  0  0  0  0  0  0
   -3.5555   -3.2065    3.7161 H   0  0  0  0  0  0  0  0  0  0  0  0
   -3.2697   -1.8165    2.5777 H   0  0  0  0  0  0  0  0  0  0  0  0
   -2.6485   -3.7572    1.8161 C   0  0  0  0  0  0  0  0  0  0  0  0
   -1.5502   -3.3617    1.3445 O   0  0  0  0  0  0  0  0  0  0  0  0
   -3.0509   -4.9897    1.6452 N   0  0  0  0  0  0  0  0  0  0  0  0
   -2.3265   -5.9696    0.8626 C   0  0  0  0  0  0  0  0  0  0  0  0
   -1.3371   -5.9621    1.1023 H   0  0  0  0  0  0  0  0  0  0  0  0
   -2.4616   -5.8357   -0.2106 H   0  0  0  0  0  0  0  0  0  0  0  0
   -2.9931   -7.2789    1.2446 C   0  0  0  0  0  0  0  0  0  0  0  0
   -2.8638   -7.9700    0.5530 H   0  0  0  0  0  0  0  0  0  0  0  0
   -2.7017   -7.5921    2.1327 H   0  0  0  0  0  0  0  0  0  0  0  0
   -4.4624   -6.8548    1.2933 C   0  0  0  0  0  0  0  0  0  0  0  0
   -4.7663   -6.5839    0.4182 H   0  0  0  0  0  0  0  0  0  0  0  0
   -4.9953   -7.5307    1.7287 H   0  0  0  0  0  0  0  0  0  0  0  0
   -4.2783   -5.6285    2.2113 C   0  0  0  0  0  0  0  0  0  0  0  0
   -5.0525   -5.0178    2.1422 H   0  0  0  0  0  0  0  0  0  0  0  0
   -4.1253   -5.9096    3.1480 H   0  0  0  0  0  0  0  0  0  0  0  0
  1  5  1  0
  5  6  2  0
  6  8  1  0
  8 10  2  0
 10 12  1  0
 12  5  1  0
  1  2  1  0
  1  3  1  0
  1  4  1  0
  6  7  1  0
  8  9  1  0
 10 11  1  0
 12 13  1  0
 14 18  1  0
 18 19  2  0
 18 20  1  0
 20 21  1  0
 21 24  1  0
 24 27  1  0
 27 30  1  0
 30 20  1  0
 14 15  1  0
 14 16  1  0
 14 17  1  0
 21 22  1  0
 21 23  1  0
 24 25  1  0
 24 26  1  0
 27 28  1  0
 27 29  1  0
 30 31  1  0
 30 32  1  0
M  CHG  1   8   1
M  END
>  <PDB_ID>  (14) 
pdb1jji

>  <RESIDUE_NAME>  (14) 
HIP   PRO

>  <FRAG_NAME>  (14) 
MIMM   N1PA

>  <FRAG_ATOM_NUM>  (14) 
fragi: 13  fragj: 19

>  <atom.prop.CHAIN_ID>  (14) 
A A A A A A A A A A A A A Z Z Z Z Z Z Z Z Z Z Z Z Z Z Z Z Z Z Z

>  <atom.prop.IS_HEAVY_ATOM>  (14) 
1 0 0 0 1 1 0 1 0 1 0 1 0 1 0 0 0 1 1 1 1 0 0 1 0 0 1 0 0 1 0 0

>  <DIFUSE_FUNC_ATOM>  (14) 
n/a

>  <FINAL_SINGLE_POINT_ENERGY>  (14) 
0

>  <NONCOV_INTER_ENERGY_QM>  (14) 
0

>  <FF_Energy>  (14) 
-13.58

>  <QM_Energy>  (14) 
-18.74

>  <Index>  (14) 
183