MIMM-pdb1rh1-A-HIP-91:N1PA-pdb1rh1-A-PRO-235
     RDKit          3D

 32 32  0  0  0  0  0  0  0  0999 V2000
   -0.5442    2.7812    0.0048 C   0  0  0  0  0  0  0  0  0  0  0  0
    0.3050    3.2719    0.2552 H   0  0  0  0  0  0  0  0  0  0  0  0
   -1.2153    2.9344    0.7462 H   0  0  0  0  0  0  0  0  0  0  0  0
   -0.9358    3.1807   -0.9307 H   0  0  0  0  0  0  0  0  0  0  0  0
   -0.2147    1.2862   -0.0008 C   0  0  0  0  0  0  0  0  0  0  0  0
    1.0640    0.7683    0.0000 C   0  0  0  0  0  0  0  0  0  0  0  0
    1.8956    1.3209    0.0022 H   0  0  0  0  0  0  0  0  0  0  0  0
    0.9312   -0.5350   -0.0010 N   0  0  0  0  0  4  0  0  0  0  0  0
    1.6792   -1.2260   -0.0028 H   0  0  0  0  0  0  0  0  0  0  0  0
   -0.3459   -0.8417    0.0002 C   0  0  0  0  0  0  0  0  0  0  0  0
   -0.7165   -1.7775    0.0018 H   0  0  0  0  0  0  0  0  0  0  0  0
   -1.0640    0.2580   -0.0000 N   0  0  0  0  0  0  0  0  0  0  0  0
   -2.0606    0.2986    0.0001 H   0  0  0  0  0  0  0  0  0  0  0  0
    4.3467   -2.7822   -1.6942 C   0  0  0  0  0  0  0  0  0  0  0  0
    4.7822   -3.5043   -2.2607 H   0  0  0  0  0  0  0  0  0  0  0  0
    3.6050   -2.2689   -2.3060 H   0  0  0  0  0  0  0  0  0  0  0  0
    5.1308   -2.1105   -1.3449 H   0  0  0  0  0  0  0  0  0  0  0  0
    3.7496   -3.4405   -0.4598 C   0  0  0  0  0  0  0  0  0  0  0  0
    2.7418   -2.9564    0.0625 O   0  0  0  0  0  0  0  0  0  0  0  0
    4.3202   -4.5549    0.0142 N   0  0  0  0  0  0  0  0  0  0  0  0
    4.0143   -5.1344    1.3167 C   0  0  0  0  0  0  0  0  0  0  0  0
    3.0981   -5.5747    1.3060 H   0  0  0  0  0  0  0  0  0  0  0  0
    4.0806   -4.4116    2.1299 H   0  0  0  0  0  0  0  0  0  0  0  0
    4.9994   -6.2742    1.4206 C   0  0  0  0  0  0  0  0  0  0  0  0
    5.8893   -5.9604    1.7305 H   0  0  0  0  0  0  0  0  0  0  0  0
    4.6600   -6.9976    2.0102 H   0  0  0  0  0  0  0  0  0  0  0  0
    5.0768   -6.7500   -0.0080 C   0  0  0  0  0  0  0  0  0  0  0  0
    5.8738   -7.3114   -0.1445 H   0  0  0  0  0  0  0  0  0  0  0  0
    4.2483   -7.2161   -0.2635 H   0  0  0  0  0  0  0  0  0  0  0  0
    5.2080   -5.4306   -0.7449 C   0  0  0  0  0  0  0  0  0  0  0  0
    6.1475   -5.0993   -0.7194 H   0  0  0  0  0  0  0  0  0  0  0  0
    4.9045   -5.5177   -1.6916 H   0  0  0  0  0  0  0  0  0  0  0  0
  1  5  1  0
  5  6  2  0
  6  8  1  0
  8 10  2  0
 10 12  1  0
 12  5  1  0
  1  2  1  0
  1  3  1  0
  1  4  1  0
  6  7  1  0
  8  9  1  0
 10 11  1  0
 12 13  1  0
 14 18  1  0
 18 19  2  0
 18 20  1  0
 20 21  1  0
 21 24  1  0
 24 27  1  0
 27 30  1  0
 30 20  1  0
 14 15  1  0
 14 16  1  0
 14 17  1  0
 21 22  1  0
 21 23  1  0
 24 25  1  0
 24 26  1  0
 27 28  1  0
 27 29  1  0
 30 31  1  0
 30 32  1  0
M  CHG  1   8   1
M  END
>  <PDB_ID>  (21) 
pdb1rh1

>  <RESIDUE_NAME>  (21) 
HIP   PRO

>  <FRAG_NAME>  (21) 
MIMM   N1PA

>  <FRAG_ATOM_NUM>  (21) 
fragi: 13  fragj: 19

>  <atom.prop.CHAIN_ID>  (21) 
A A A A A A A A A A A A A Z Z Z Z Z Z Z Z Z Z Z Z Z Z Z Z Z Z Z

>  <atom.prop.IS_HEAVY_ATOM>  (21) 
1 0 0 0 1 1 0 1 0 1 0 1 0 1 0 0 0 1 1 1 1 0 0 1 0 0 1 0 0 1 0 0

>  <DIFUSE_FUNC_ATOM>  (21) 
n/a

>  <FINAL_SINGLE_POINT_ENERGY>  (21) 
0

>  <NONCOV_INTER_ENERGY_QM>  (21) 
0

>  <FF_Energy>  (21) 
-17.02

>  <QM_Energy>  (21) 
-25.1

>  <Index>  (21) 
287