MIMM-pdb6grl-A-HIP-37:N1PA-pdb6grl-A-PRO-15
     RDKit          3D

 32 32  0  0  0  0  0  0  0  0999 V2000
   -0.6711    2.7365   -0.0019 C   0  0  0  0  0  0  0  0  0  0  0  0
    0.0152    3.3002    0.4753 H   0  0  0  0  0  0  0  0  0  0  0  0
   -1.5313    2.7793    0.5232 H   0  0  0  0  0  0  0  0  0  0  0  0
   -0.8433    3.1541   -0.9939 H   0  0  0  0  0  0  0  0  0  0  0  0
   -0.1941    1.3199   -0.0071 C   0  0  0  0  0  0  0  0  0  0  0  0
    1.0561    0.8008   -0.0000 C   0  0  0  0  0  0  0  0  0  0  0  0
    1.9112    1.3125    0.0040 H   0  0  0  0  0  0  0  0  0  0  0  0
    0.9271   -0.5668    0.0016 N   0  0  0  0  0  4  0  0  0  0  0  0
    1.6837   -1.2233    0.0016 H   0  0  0  0  0  0  0  0  0  0  0  0
   -0.3573   -0.8760    0.0021 C   0  0  0  0  0  0  0  0  0  0  0  0
   -0.7330   -1.7984    0.0055 H   0  0  0  0  0  0  0  0  0  0  0  0
   -1.0561    0.2445   -0.0000 N   0  0  0  0  0  0  0  0  0  0  0  0
   -2.0542    0.3068    0.0022 H   0  0  0  0  0  0  0  0  0  0  0  0
   -5.0169   -0.7153   -0.8983 C   0  0  0  0  0  0  0  0  0  0  0  0
   -5.8090   -0.5914   -1.5047 H   0  0  0  0  0  0  0  0  0  0  0  0
   -4.1581   -0.9514   -1.5267 H   0  0  0  0  0  0  0  0  0  0  0  0
   -5.1838   -1.5072   -0.1683 H   0  0  0  0  0  0  0  0  0  0  0  0
   -4.7996    0.6125   -0.1756 C   0  0  0  0  0  0  0  0  0  0  0  0
   -3.6708    0.9289    0.2153 O   0  0  0  0  0  0  0  0  0  0  0  0
   -5.8519    1.4086    0.0160 N   0  0  0  0  0  0  0  0  0  0  0  0
   -5.7231    2.6067    0.8546 C   0  0  0  0  0  0  0  0  0  0  0  0
   -5.0696    3.2556    0.4481 H   0  0  0  0  0  0  0  0  0  0  0  0
   -5.4280    2.3404    1.8695 H   0  0  0  0  0  0  0  0  0  0  0  0
   -7.1278    3.2209    0.8186 C   0  0  0  0  0  0  0  0  0  0  0  0
   -7.6575    2.9391    1.6208 H   0  0  0  0  0  0  0  0  0  0  0  0
   -7.0767    4.2206    0.7936 H   0  0  0  0  0  0  0  0  0  0  0  0
   -7.7406    2.6853   -0.4408 C   0  0  0  0  0  0  0  0  0  0  0  0
   -8.7420    2.6700   -0.3630 H   0  0  0  0  0  0  0  0  0  0  0  0
   -7.4872    3.2618   -1.2243 H   0  0  0  0  0  0  0  0  0  0  0  0
   -7.1894    1.2974   -0.5913 C   0  0  0  0  0  0  0  0  0  0  0  0
   -7.7423    0.6267   -0.0994 H   0  0  0  0  0  0  0  0  0  0  0  0
   -7.1172    1.0326   -1.5521 H   0  0  0  0  0  0  0  0  0  0  0  0
  1  5  1  0
  5  6  2  0
  6  8  1  0
  8 10  2  0
 10 12  1  0
 12  5  1  0
  1  2  1  0
  1  3  1  0
  1  4  1  0
  6  7  1  0
  8  9  1  0
 10 11  1  0
 12 13  1  0
 14 18  1  0
 18 19  2  0
 18 20  1  0
 20 21  1  0
 21 24  1  0
 24 27  1  0
 27 30  1  0
 30 20  1  0
 14 15  1  0
 14 16  1  0
 14 17  1  0
 21 22  1  0
 21 23  1  0
 24 25  1  0
 24 26  1  0
 27 28  1  0
 27 29  1  0
 30 31  1  0
 30 32  1  0
M  CHG  1   8   1
M  END

$$$$