MIMM-pdb5jqf-B-HIP-15:N1PA-pdb5jqf-B-PRO-7
     RDKit          3D

 32 32  0  0  0  0  0  0  0  0999 V2000
   -0.6713    2.7231   -0.0892 C   0  0  0  0  0  0  0  0  0  0  0  0
   -0.1563    3.2862    0.5007 H   0  0  0  0  0  0  0  0  0  0  0  0
   -1.6132    2.7596    0.1777 H   0  0  0  0  0  0  0  0  0  0  0  0
   -0.6021    3.1123   -1.1051 H   0  0  0  0  0  0  0  0  0  0  0  0
   -0.2003    1.3095   -0.0050 C   0  0  0  0  0  0  0  0  0  0  0  0
    1.0515    0.7870   -0.0000 C   0  0  0  0  0  0  0  0  0  0  0  0
    1.8322    1.2718   -0.0248 H   0  0  0  0  0  0  0  0  0  0  0  0
    0.9181   -0.5849   -0.0050 N   0  0  0  0  0  4  0  0  0  0  0  0
    1.5673   -1.1431    0.0350 H   0  0  0  0  0  0  0  0  0  0  0  0
   -0.3597   -0.8864    0.0015 C   0  0  0  0  0  0  0  0  0  0  0  0
   -0.7179   -1.7465    0.0100 H   0  0  0  0  0  0  0  0  0  0  0  0
   -1.0515    0.2349    0.0000 N   0  0  0  0  0  0  0  0  0  0  0  0
   -1.9136    0.2881   -0.0110 H   0  0  0  0  0  0  0  0  0  0  0  0
   -3.8915    2.5552    2.2386 C   0  0  0  0  0  0  0  0  0  0  0  0
   -4.6170    2.4223    2.8708 H   0  0  0  0  0  0  0  0  0  0  0  0
   -3.7808    3.4915    2.0148 H   0  0  0  0  0  0  0  0  0  0  0  0
   -2.9718    2.1631    2.6728 H   0  0  0  0  0  0  0  0  0  0  0  0
   -4.2884    1.8271    0.9836 C   0  0  0  0  0  0  0  0  0  0  0  0
   -3.6152    0.8775    0.5353 O   0  0  0  0  0  0  0  0  0  0  0  0
   -5.3577    2.2574    0.3520 N   0  0  0  0  0  0  0  0  0  0  0  0
   -5.7600    1.6661   -0.9249 C   0  0  0  0  0  0  0  0  0  0  0  0
   -6.0355    0.7307   -0.8028 H   0  0  0  0  0  0  0  0  0  0  0  0
   -4.9354    1.7223   -1.6354 H   0  0  0  0  0  0  0  0  0  0  0  0
   -6.9376    2.5575   -1.3441 C   0  0  0  0  0  0  0  0  0  0  0  0
   -6.6193    3.2831   -1.9015 H   0  0  0  0  0  0  0  0  0  0  0  0
   -7.5944    1.9995   -1.7971 H   0  0  0  0  0  0  0  0  0  0  0  0
   -7.5026    3.0730   -0.0103 C   0  0  0  0  0  0  0  0  0  0  0  0
   -7.9980    3.8729   -0.1852 H   0  0  0  0  0  0  0  0  0  0  0  0
   -8.0178    2.3716    0.4102 H   0  0  0  0  0  0  0  0  0  0  0  0
   -6.2629    3.3523    0.7758 C   0  0  0  0  0  0  0  0  0  0  0  0
   -5.8641    4.2039    0.5020 H   0  0  0  0  0  0  0  0  0  0  0  0
   -6.4483    3.3186    1.7124 H   0  0  0  0  0  0  0  0  0  0  0  0
  1  5  1  0
  5  6  2  0
  6  8  1  0
  8 10  2  0
 10 12  1  0
 12  5  1  0
  1  2  1  0
  1  3  1  0
  1  4  1  0
  6  7  1  0
  8  9  1  0
 10 11  1  0
 12 13  1  0
 14 18  1  0
 18 19  2  0
 18 20  1  0
 20 21  1  0
 21 24  1  0
 24 27  1  0
 27 30  1  0
 30 20  1  0
 14 15  1  0
 14 16  1  0
 14 17  1  0
 21 22  1  0
 21 23  1  0
 24 25  1  0
 24 26  1  0
 27 28  1  0
 27 29  1  0
 30 31  1  0
 30 32  1  0
M  CHG  1   8   1
M  END
>  <PDB_ID>  (1) 
pdb5jqf

>  <RESIDUE_NAME>  (1) 
HIP   PRO

>  <FRAG_NAME>  (1) 
MIMM   N1PA

>  <FRAG_ATOM_NUM>  (1) 
fragi: 13  fragj: 19

>  <atom.prop.CHAIN_ID>  (1) 
A A A A A A A A A A A A A Z Z Z Z Z Z Z Z Z Z Z Z Z Z Z Z Z Z Z

>  <atom.prop.IS_HEAVY_ATOM>  (1) 
1 0 0 0 1 1 0 1 0 1 0 1 0 1 0 0 0 1 1 1 1 0 0 1 0 0 1 0 0 1 0 0

>  <DIFUSE_FUNC_ATOM>  (1) 
n/a

>  <FINAL_SINGLE_POINT_ENERGY>  (1) 
0

>  <NONCOV_INTER_ENERGY_QM>  (1) 
0

>  <FF_Energy>  (1) 
-18.95

>  <QM_Energy>  (1) 
-24.48

>  <Index>  (1) 
2

$$$$
MIMM-pdb1a12-A-HIP-270:N1PA-pdb1a12-A-PRO-275
     RDKit          3D

 32 32  0  0  0  0  0  0  0  0999 V2000
   -0.6785    2.7354   -0.0521 C   0  0  0  0  0  0  0  0  0  0  0  0
    0.0442    3.3296    0.3243 H   0  0  0  0  0  0  0  0  0  0  0  0
   -1.4893    2.8143    0.5417 H   0  0  0  0  0  0  0  0  0  0  0  0
   -0.9392    3.0868   -1.0504 H   0  0  0  0  0  0  0  0  0  0  0  0
   -0.1959    1.3188   -0.0031 C   0  0  0  0  0  0  0  0  0  0  0  0
    1.0549    0.8032   -0.0000 C   0  0  0  0  0  0  0  0  0  0  0  0
    1.9082    1.3160    0.0023 H   0  0  0  0  0  0  0  0  0  0  0  0
    0.9282   -0.5662    0.0014 N   0  0  0  0  0  4  0  0  0  0  0  0
    1.6846   -1.2207    0.0013 H   0  0  0  0  0  0  0  0  0  0  0  0
   -0.3575   -0.8754    0.0002 C   0  0  0  0  0  0  0  0  0  0  0  0
   -0.7323   -1.7989    0.0017 H   0  0  0  0  0  0  0  0  0  0  0  0
   -1.0549    0.2431    0.0000 N   0  0  0  0  0  0  0  0  0  0  0  0
   -2.0546    0.3046    0.0005 H   0  0  0  0  0  0  0  0  0  0  0  0
   -6.1972    1.0647   -0.6191 C   0  0  0  0  0  0  0  0  0  0  0  0
   -7.0794    0.8915   -0.1883 H   0  0  0  0  0  0  0  0  0  0  0  0
   -5.9300    2.1115   -0.4741 H   0  0  0  0  0  0  0  0  0  0  0  0
   -6.2559    0.8088   -1.6770 H   0  0  0  0  0  0  0  0  0  0  0  0
   -5.1463    0.1931    0.0820 C   0  0  0  0  0  0  0  0  0  0  0  0
   -4.0020    0.6039    0.2280 O   0  0  0  0  0  0  0  0  0  0  0  0
   -5.5491   -0.9947    0.4941 N   0  0  0  0  0  0  0  0  0  0  0  0
   -4.6407   -1.9450    1.1069 C   0  0  0  0  0  0  0  0  0  0  0  0
   -4.2186   -1.5604    1.9405 H   0  0  0  0  0  0  0  0  0  0  0  0
   -3.8710   -2.2693    0.4067 H   0  0  0  0  0  0  0  0  0  0  0  0
   -5.5683   -3.0846    1.5242 C   0  0  0  0  0  0  0  0  0  0  0  0
   -5.6927   -3.7293    0.7728 H   0  0  0  0  0  0  0  0  0  0  0  0
   -5.2043   -3.5611    2.3216 H   0  0  0  0  0  0  0  0  0  0  0  0
   -6.8302   -2.3788    1.8451 C   0  0  0  0  0  0  0  0  0  0  0  0
   -7.5960   -3.0054    1.8678 H   0  0  0  0  0  0  0  0  0  0  0  0
   -6.7530   -1.8763    2.6939 H   0  0  0  0  0  0  0  0  0  0  0  0
   -6.9441   -1.4356    0.6720 C   0  0  0  0  0  0  0  0  0  0  0  0
   -7.2706   -1.9053   -0.1415 H   0  0  0  0  0  0  0  0  0  0  0  0
   -7.5337   -0.6612    0.8836 H   0  0  0  0  0  0  0  0  0  0  0  0
  1  5  1  0
  5  6  2  0
  6  8  1  0
  8 10  2  0
 10 12  1  0
 12  5  1  0
  1  2  1  0
  1  3  1  0
  1  4  1  0
  6  7  1  0
  8  9  1  0
 10 11  1  0
 12 13  1  0
 14 18  1  0
 18 19  2  0
 18 20  1  0
 20 21  1  0
 21 24  1  0
 24 27  1  0
 27 30  1  0
 30 20  1  0
 14 15  1  0
 14 16  1  0
 14 17  1  0
 21 22  1  0
 21 23  1  0
 24 25  1  0
 24 26  1  0
 27 28  1  0
 27 29  1  0
 30 31  1  0
 30 32  1  0
M  CHG  1   8   1
M  END
>  <PDB_ID>  (2) 
pdb1a12

>  <RESIDUE_NAME>  (2) 
HIP   PRO

>  <FRAG_NAME>  (2) 
MIMM   N1PA

>  <FRAG_ATOM_NUM>  (2) 
fragi: 13  fragj: 19

>  <atom.prop.CHAIN_ID>  (2) 
A A A A A A A A A A A A A Z Z Z Z Z Z Z Z Z Z Z Z Z Z Z Z Z Z Z

>  <atom.prop.IS_HEAVY_ATOM>  (2) 
1 0 0 0 1 1 0 1 0 1 0 1 0 1 0 0 0 1 1 1 1 0 0 1 0 0 1 0 0 1 0 0

>  <DIFUSE_FUNC_ATOM>  (2) 
n/a

>  <FINAL_SINGLE_POINT_ENERGY>  (2) 
0

>  <NONCOV_INTER_ENERGY_QM>  (2) 
0

>  <FF_Energy>  (2) 
-18.9

>  <QM_Energy>  (2) 
-24.23

>  <Index>  (2) 
12

$$$$
MIMM-pdb1a12-B-HIP-270:N1PA-pdb1a12-B-PRO-275
     RDKit          3D

 32 32  0  0  0  0  0  0  0  0999 V2000
   -0.6756    2.7339   -0.0410 C   0  0  0  0  0  0  0  0  0  0  0  0
    0.0391    3.3218    0.3593 H   0  0  0  0  0  0  0  0  0  0  0  0
   -1.4997    2.8046    0.5355 H   0  0  0  0  0  0  0  0  0  0  0  0
   -0.9134    3.0994   -1.0400 H   0  0  0  0  0  0  0  0  0  0  0  0
   -0.1968    1.3197   -0.0058 C   0  0  0  0  0  0  0  0  0  0  0  0
    1.0557    0.8017   -0.0000 C   0  0  0  0  0  0  0  0  0  0  0  0
    1.9085    1.3158    0.0030 H   0  0  0  0  0  0  0  0  0  0  0  0
    0.9286   -0.5659    0.0010 N   0  0  0  0  0  4  0  0  0  0  0  0
    1.6854   -1.2214    0.0005 H   0  0  0  0  0  0  0  0  0  0  0  0
   -0.3573   -0.8777    0.0026 C   0  0  0  0  0  0  0  0  0  0  0  0
   -0.7318   -1.7997    0.0049 H   0  0  0  0  0  0  0  0  0  0  0  0
   -1.0557    0.2442    0.0000 N   0  0  0  0  0  0  0  0  0  0  0  0
   -2.0550    0.3035    0.0023 H   0  0  0  0  0  0  0  0  0  0  0  0
   -6.1337    1.2761   -0.3499 C   0  0  0  0  0  0  0  0  0  0  0  0
   -7.0103    1.1185    0.1207 H   0  0  0  0  0  0  0  0  0  0  0  0
   -5.8567    2.3237   -0.2326 H   0  0  0  0  0  0  0  0  0  0  0  0
   -6.2429    1.0189   -1.4035 H   0  0  0  0  0  0  0  0  0  0  0  0
   -5.0859    0.3658    0.2776 C   0  0  0  0  0  0  0  0  0  0  0  0
   -3.9024    0.6895    0.2818 O   0  0  0  0  0  0  0  0  0  0  0  0
   -5.4914   -0.8143    0.7375 N   0  0  0  0  0  0  0  0  0  0  0  0
   -4.5805   -1.7837    1.2994 C   0  0  0  0  0  0  0  0  0  0  0  0
   -4.0862   -1.3928    2.1032 H   0  0  0  0  0  0  0  0  0  0  0  0
   -3.8707   -2.1824    0.5747 H   0  0  0  0  0  0  0  0  0  0  0  0
   -5.5190   -2.9032    1.7636 C   0  0  0  0  0  0  0  0  0  0  0  0
   -5.5913   -3.6159    1.0640 H   0  0  0  0  0  0  0  0  0  0  0  0
   -5.1908   -3.3081    2.6166 H   0  0  0  0  0  0  0  0  0  0  0  0
   -6.8312   -2.2149    1.9653 C   0  0  0  0  0  0  0  0  0  0  0  0
   -7.5743   -2.8707    1.9493 H   0  0  0  0  0  0  0  0  0  0  0  0
   -6.8295   -1.7048    2.8154 H   0  0  0  0  0  0  0  0  0  0  0  0
   -6.8778   -1.3074    0.7832 C   0  0  0  0  0  0  0  0  0  0  0  0
   -7.1008   -1.7979   -0.0524 H   0  0  0  0  0  0  0  0  0  0  0  0
   -7.5121   -0.5519    0.9184 H   0  0  0  0  0  0  0  0  0  0  0  0
  1  5  1  0
  5  6  2  0
  6  8  1  0
  8 10  2  0
 10 12  1  0
 12  5  1  0
  1  2  1  0
  1  3  1  0
  1  4  1  0
  6  7  1  0
  8  9  1  0
 10 11  1  0
 12 13  1  0
 14 18  1  0
 18 19  2  0
 18 20  1  0
 20 21  1  0
 21 24  1  0
 24 27  1  0
 27 30  1  0
 30 20  1  0
 14 15  1  0
 14 16  1  0
 14 17  1  0
 21 22  1  0
 21 23  1  0
 24 25  1  0
 24 26  1  0
 27 28  1  0
 27 29  1  0
 30 31  1  0
 30 32  1  0
M  CHG  1   8   1
M  END
>  <PDB_ID>  (3) 
pdb1a12

>  <RESIDUE_NAME>  (3) 
HIP   PRO

>  <FRAG_NAME>  (3) 
MIMM   N1PA

>  <FRAG_ATOM_NUM>  (3) 
fragi: 13  fragj: 19

>  <atom.prop.CHAIN_ID>  (3) 
A A A A A A A A A A A A A Z Z Z Z Z Z Z Z Z Z Z Z Z Z Z Z Z Z Z

>  <atom.prop.IS_HEAVY_ATOM>  (3) 
1 0 0 0 1 1 0 1 0 1 0 1 0 1 0 0 0 1 1 1 1 0 0 1 0 0 1 0 0 1 0 0

>  <DIFUSE_FUNC_ATOM>  (3) 
n/a

>  <FINAL_SINGLE_POINT_ENERGY>  (3) 
0

>  <NONCOV_INTER_ENERGY_QM>  (3) 
0

>  <FF_Energy>  (3) 
-19.8

>  <QM_Energy>  (3) 
-25.42

>  <Index>  (3) 
13

$$$$
MIMM-pdb1a12-C-HIP-270:N1PA-pdb1a12-C-PRO-275
     RDKit          3D

 32 32  0  0  0  0  0  0  0  0999 V2000
   -0.6720    2.7407   -0.0643 C   0  0  0  0  0  0  0  0  0  0  0  0
    0.0350    3.3294    0.3474 H   0  0  0  0  0  0  0  0  0  0  0  0
   -1.5078    2.8173    0.4945 H   0  0  0  0  0  0  0  0  0  0  0  0
   -0.8891    3.1032   -1.0690 H   0  0  0  0  0  0  0  0  0  0  0  0
   -0.1954    1.3205   -0.0061 C   0  0  0  0  0  0  0  0  0  0  0  0
    1.0550    0.8016    0.0000 C   0  0  0  0  0  0  0  0  0  0  0  0
    1.9095    1.3136    0.0042 H   0  0  0  0  0  0  0  0  0  0  0  0
    0.9274   -0.5674    0.0022 N   0  0  0  0  0  4  0  0  0  0  0  0
    1.6847   -1.2220    0.0026 H   0  0  0  0  0  0  0  0  0  0  0  0
   -0.3556   -0.8755    0.0018 C   0  0  0  0  0  0  0  0  0  0  0  0
   -0.7320   -1.7986    0.0039 H   0  0  0  0  0  0  0  0  0  0  0  0
   -1.0550    0.2438   -0.0000 N   0  0  0  0  0  0  0  0  0  0  0  0
   -2.0541    0.3046    0.0013 H   0  0  0  0  0  0  0  0  0  0  0  0
   -6.1266    1.4055   -0.4086 C   0  0  0  0  0  0  0  0  0  0  0  0
   -6.9612    1.2437    0.1223 H   0  0  0  0  0  0  0  0  0  0  0  0
   -5.8038    2.4350   -0.2533 H   0  0  0  0  0  0  0  0  0  0  0  0
   -6.2568    1.1866   -1.4684 H   0  0  0  0  0  0  0  0  0  0  0  0
   -5.0486    0.4399    0.0933 C   0  0  0  0  0  0  0  0  0  0  0  0
   -3.8577    0.7364    0.0072 O   0  0  0  0  0  0  0  0  0  0  0  0
   -5.4512   -0.7530    0.5279 N   0  0  0  0  0  0  0  0  0  0  0  0
   -4.5470   -1.7497    1.0481 C   0  0  0  0  0  0  0  0  0  0  0  0
   -4.0966   -1.4033    1.9163 H   0  0  0  0  0  0  0  0  0  0  0  0
   -3.7920   -2.1292    0.3596 H   0  0  0  0  0  0  0  0  0  0  0  0
   -5.4961   -2.8664    1.4954 C   0  0  0  0  0  0  0  0  0  0  0  0
   -5.6425   -3.5227    0.7571 H   0  0  0  0  0  0  0  0  0  0  0  0
   -5.1352   -3.3364    2.2984 H   0  0  0  0  0  0  0  0  0  0  0  0
   -6.7623   -2.1380    1.8232 C   0  0  0  0  0  0  0  0  0  0  0  0
   -7.5283   -2.7612    1.8394 H   0  0  0  0  0  0  0  0  0  0  0  0
   -6.6726   -1.6538    2.6796 H   0  0  0  0  0  0  0  0  0  0  0  0
   -6.8513   -1.1918    0.6671 C   0  0  0  0  0  0  0  0  0  0  0  0
   -7.1572   -1.6492   -0.1619 H   0  0  0  0  0  0  0  0  0  0  0  0
   -7.4422   -0.4151    0.8687 H   0  0  0  0  0  0  0  0  0  0  0  0
  1  5  1  0
  5  6  2  0
  6  8  1  0
  8 10  2  0
 10 12  1  0
 12  5  1  0
  1  2  1  0
  1  3  1  0
  1  4  1  0
  6  7  1  0
  8  9  1  0
 10 11  1  0
 12 13  1  0
 14 18  1  0
 18 19  2  0
 18 20  1  0
 20 21  1  0
 21 24  1  0
 24 27  1  0
 27 30  1  0
 30 20  1  0
 14 15  1  0
 14 16  1  0
 14 17  1  0
 21 22  1  0
 21 23  1  0
 24 25  1  0
 24 26  1  0
 27 28  1  0
 27 29  1  0
 30 31  1  0
 30 32  1  0
M  CHG  1   8   1
M  END
>  <PDB_ID>  (4) 
pdb1a12

>  <RESIDUE_NAME>  (4) 
HIP   PRO

>  <FRAG_NAME>  (4) 
MIMM   N1PA

>  <FRAG_ATOM_NUM>  (4) 
fragi: 13  fragj: 19

>  <atom.prop.CHAIN_ID>  (4) 
A A A A A A A A A A A A A Z Z Z Z Z Z Z Z Z Z Z Z Z Z Z Z Z Z Z

>  <atom.prop.IS_HEAVY_ATOM>  (4) 
1 0 0 0 1 1 0 1 0 1 0 1 0 1 0 0 0 1 1 1 1 0 0 1 0 0 1 0 0 1 0 0

>  <DIFUSE_FUNC_ATOM>  (4) 
n/a

>  <FINAL_SINGLE_POINT_ENERGY>  (4) 
0

>  <NONCOV_INTER_ENERGY_QM>  (4) 
0

>  <FF_Energy>  (4) 
-20.19

>  <QM_Energy>  (4) 
-26.29

>  <Index>  (4) 
14

$$$$
MIMM-pdb1bn8-A-HIP-222:N1PA-pdb1bn8-A-PRO-207
     RDKit          3D

 32 32  0  0  0  0  0  0  0  0999 V2000
   -0.6469    2.7419   -0.0061 C   0  0  0  0  0  0  0  0  0  0  0  0
   -1.6423    2.7563   -0.0818 H   0  0  0  0  0  0  0  0  0  0  0  0
   -0.2413    3.2146   -0.7854 H   0  0  0  0  0  0  0  0  0  0  0  0
   -0.3552    3.2585    0.9083 H   0  0  0  0  0  0  0  0  0  0  0  0
   -0.1867    1.3152   -0.0190 C   0  0  0  0  0  0  0  0  0  0  0  0
    1.0631    0.7967   -0.0000 C   0  0  0  0  0  0  0  0  0  0  0  0
    1.9169    1.3051    0.0082 H   0  0  0  0  0  0  0  0  0  0  0  0
    0.9277   -0.5714    0.0067 N   0  0  0  0  0  4  0  0  0  0  0  0
    1.6799   -1.2309    0.0103 H   0  0  0  0  0  0  0  0  0  0  0  0
   -0.3590   -0.8700    0.0067 C   0  0  0  0  0  0  0  0  0  0  0  0
   -0.7410   -1.7928    0.0123 H   0  0  0  0  0  0  0  0  0  0  0  0
   -1.0631    0.2523    0.0000 N   0  0  0  0  0  0  0  0  0  0  0  0
   -2.0543    0.3169    0.0061 H   0  0  0  0  0  0  0  0  0  0  0  0
    0.0417   -6.0137   -0.0708 C   0  0  0  0  0  0  0  0  0  0  0  0
   -0.4386   -6.8136    0.3273 H   0  0  0  0  0  0  0  0  0  0  0  0
    0.6762   -6.3576   -0.8876 H   0  0  0  0  0  0  0  0  0  0  0  0
    0.6640   -5.5878    0.7162 H   0  0  0  0  0  0  0  0  0  0  0  0
   -0.9988   -5.0035   -0.5267 C   0  0  0  0  0  0  0  0  0  0  0  0
   -0.9488   -3.8109   -0.2101 O   0  0  0  0  0  0  0  0  0  0  0  0
   -1.9880   -5.4615   -1.2861 N   0  0  0  0  0  0  0  0  0  0  0  0
   -3.0486   -4.5953   -1.7732 C   0  0  0  0  0  0  0  0  0  0  0  0
   -2.6707   -3.8109   -2.2770 H   0  0  0  0  0  0  0  0  0  0  0  0
   -3.6705   -4.2623   -0.9422 H   0  0  0  0  0  0  0  0  0  0  0  0
   -3.8027   -5.4472   -2.7814 C   0  0  0  0  0  0  0  0  0  0  0  0
   -4.7890   -5.2382   -2.7587 H   0  0  0  0  0  0  0  0  0  0  0  0
   -3.4680   -5.2756   -3.7168 H   0  0  0  0  0  0  0  0  0  0  0  0
   -3.5483   -6.8541   -2.3751 C   0  0  0  0  0  0  0  0  0  0  0  0
   -4.2608   -7.1739   -1.7352 H   0  0  0  0  0  0  0  0  0  0  0  0
   -3.5568   -7.4634   -3.1796 H   0  0  0  0  0  0  0  0  0  0  0  0
   -2.1976   -6.8639   -1.7158 C   0  0  0  0  0  0  0  0  0  0  0  0
   -2.1794   -7.4762   -0.9211 H   0  0  0  0  0  0  0  0  0  0  0  0
   -1.4755   -7.1421   -2.3566 H   0  0  0  0  0  0  0  0  0  0  0  0
  1  5  1  0
  5  6  2  0
  6  8  1  0
  8 10  2  0
 10 12  1  0
 12  5  1  0
  1  2  1  0
  1  3  1  0
  1  4  1  0
  6  7  1  0
  8  9  1  0
 10 11  1  0
 12 13  1  0
 14 18  1  0
 18 19  2  0
 18 20  1  0
 20 21  1  0
 21 24  1  0
 24 27  1  0
 27 30  1  0
 30 20  1  0
 14 15  1  0
 14 16  1  0
 14 17  1  0
 21 22  1  0
 21 23  1  0
 24 25  1  0
 24 26  1  0
 27 28  1  0
 27 29  1  0
 30 31  1  0
 30 32  1  0
M  CHG  1   8   1
M  END
>  <PDB_ID>  (5) 
pdb1bn8

>  <RESIDUE_NAME>  (5) 
HIP   PRO

>  <FRAG_NAME>  (5) 
MIMM   N1PA

>  <FRAG_ATOM_NUM>  (5) 
fragi: 13  fragj: 19

>  <atom.prop.CHAIN_ID>  (5) 
A A A A A A A A A A A A A Z Z Z Z Z Z Z Z Z Z Z Z Z Z Z Z Z Z Z

>  <atom.prop.IS_HEAVY_ATOM>  (5) 
1 0 0 0 1 1 0 1 0 1 0 1 0 1 0 0 0 1 1 1 1 0 0 1 0 0 1 0 0 1 0 0

>  <DIFUSE_FUNC_ATOM>  (5) 
n/a

>  <FINAL_SINGLE_POINT_ENERGY>  (5) 
0

>  <NONCOV_INTER_ENERGY_QM>  (5) 
0

>  <FF_Energy>  (5) 
-12.62

>  <QM_Energy>  (5) 
-19.92

>  <Index>  (5) 
40

$$$$
MIMM-pdb1c2t-A-HIP-108:N1PA-pdb1c2t-A-PRO-116
     RDKit          3D

 32 32  0  0  0  0  0  0  0  0999 V2000
   -0.6763    2.7397    0.0316 C   0  0  0  0  0  0  0  0  0  0  0  0
   -1.3120    2.8711   -0.7377 H   0  0  0  0  0  0  0  0  0  0  0  0
    0.1168    3.3448   -0.1066 H   0  0  0  0  0  0  0  0  0  0  0  0
   -1.1773    3.0182    0.9587 H   0  0  0  0  0  0  0  0  0  0  0  0
   -0.1943    1.3214    0.0040 C   0  0  0  0  0  0  0  0  0  0  0  0
    1.0562    0.8003   -0.0000 C   0  0  0  0  0  0  0  0  0  0  0  0
    1.9108    1.3123   -0.0000 H   0  0  0  0  0  0  0  0  0  0  0  0
    0.9284   -0.5683   -0.0026 N   0  0  0  0  0  4  0  0  0  0  0  0
    1.6842   -1.2241   -0.0058 H   0  0  0  0  0  0  0  0  0  0  0  0
   -0.3568   -0.8758   -0.0019 C   0  0  0  0  0  0  0  0  0  0  0  0
   -0.7341   -1.7986   -0.0014 H   0  0  0  0  0  0  0  0  0  0  0  0
   -1.0562    0.2452   -0.0000 N   0  0  0  0  0  0  0  0  0  0  0  0
   -2.0541    0.3069   -0.0018 H   0  0  0  0  0  0  0  0  0  0  0  0
    5.1997   -3.1376   -0.7960 C   0  0  0  0  0  0  0  0  0  0  0  0
    5.3087   -4.1538   -0.9836 H   0  0  0  0  0  0  0  0  0  0  0  0
    6.0336   -2.6108   -1.2597 H   0  0  0  0  0  0  0  0  0  0  0  0
    5.2976   -3.0478    0.2858 H   0  0  0  0  0  0  0  0  0  0  0  0
    3.7991   -2.7517   -1.2294 C   0  0  0  0  0  0  0  0  0  0  0  0
    3.0032   -2.2418   -0.4409 O   0  0  0  0  0  0  0  0  0  0  0  0
    3.5053   -2.8931   -2.5328 N   0  0  0  0  0  0  0  0  0  0  0  0
    2.1769   -2.5276   -3.0134 C   0  0  0  0  0  0  0  0  0  0  0  0
    1.9093   -1.6459   -2.7051 H   0  0  0  0  0  0  0  0  0  0  0  0
    1.5442   -3.3050   -2.5850 H   0  0  0  0  0  0  0  0  0  0  0  0
    2.2930   -2.7021   -4.5416 C   0  0  0  0  0  0  0  0  0  0  0  0
    2.0125   -3.6033   -4.8233 H   0  0  0  0  0  0  0  0  0  0  0  0
    1.8032   -1.9970   -5.0228 H   0  0  0  0  0  0  0  0  0  0  0  0
    3.8210   -2.5326   -4.7742 C   0  0  0  0  0  0  0  0  0  0  0  0
    4.0613   -2.8995   -5.6409 H   0  0  0  0  0  0  0  0  0  0  0  0
    4.0682   -1.6020   -4.6495 H   0  0  0  0  0  0  0  0  0  0  0  0
    4.3386   -3.4070   -3.6329 C   0  0  0  0  0  0  0  0  0  0  0  0
    4.1532   -4.3564   -3.8043 H   0  0  0  0  0  0  0  0  0  0  0  0
    5.2932   -3.2392   -3.4645 H   0  0  0  0  0  0  0  0  0  0  0  0
  1  5  1  0
  5  6  2  0
  6  8  1  0
  8 10  2  0
 10 12  1  0
 12  5  1  0
  1  2  1  0
  1  3  1  0
  1  4  1  0
  6  7  1  0
  8  9  1  0
 10 11  1  0
 12 13  1  0
 14 18  1  0
 18 19  2  0
 18 20  1  0
 20 21  1  0
 21 24  1  0
 24 27  1  0
 27 30  1  0
 30 20  1  0
 14 15  1  0
 14 16  1  0
 14 17  1  0
 21 22  1  0
 21 23  1  0
 24 25  1  0
 24 26  1  0
 27 28  1  0
 27 29  1  0
 30 31  1  0
 30 32  1  0
M  CHG  1   8   1
M  END
>  <PDB_ID>  (6) 
pdb1c2t

>  <RESIDUE_NAME>  (6) 
HIP   PRO

>  <FRAG_NAME>  (6) 
MIMM   N1PA

>  <FRAG_ATOM_NUM>  (6) 
fragi: 13  fragj: 19

>  <atom.prop.CHAIN_ID>  (6) 
A A A A A A A A A A A A A Z Z Z Z Z Z Z Z Z Z Z Z Z Z Z Z Z Z Z

>  <atom.prop.IS_HEAVY_ATOM>  (6) 
1 0 0 0 1 1 0 1 0 1 0 1 0 1 0 0 0 1 1 1 1 0 0 1 0 0 1 0 0 1 0 0

>  <DIFUSE_FUNC_ATOM>  (6) 
n/a

>  <FINAL_SINGLE_POINT_ENERGY>  (6) 
0

>  <NONCOV_INTER_ENERGY_QM>  (6) 
0

>  <FF_Energy>  (6) 
-19.26

>  <QM_Energy>  (6) 
-25.1

>  <Index>  (6) 
41

$$$$
MIMM-pdb1c3x-C-HIP-184:N1PA-pdb1c3x-C-PRO-191
     RDKit          3D

 32 32  0  0  0  0  0  0  0  0999 V2000
   -0.6674    2.7323   -0.1357 C   0  0  0  0  0  0  0  0  0  0  0  0
   -1.6745    2.7293   -0.1190 H   0  0  0  0  0  0  0  0  0  0  0  0
   -0.3673    3.0851   -1.0299 H   0  0  0  0  0  0  0  0  0  0  0  0
   -0.2970    3.3890    0.6515 H   0  0  0  0  0  0  0  0  0  0  0  0
   -0.1940    1.3207   -0.0088 C   0  0  0  0  0  0  0  0  0  0  0  0
    1.0588    0.8027   -0.0000 C   0  0  0  0  0  0  0  0  0  0  0  0
    1.9115    1.3139    0.0040 H   0  0  0  0  0  0  0  0  0  0  0  0
    0.9278   -0.5667    0.0034 N   0  0  0  0  0  4  0  0  0  0  0  0
    1.6832   -1.2236    0.0052 H   0  0  0  0  0  0  0  0  0  0  0  0
   -0.3597   -0.8779    0.0026 C   0  0  0  0  0  0  0  0  0  0  0  0
   -0.7338   -1.8002    0.0054 H   0  0  0  0  0  0  0  0  0  0  0  0
   -1.0588    0.2435    0.0000 N   0  0  0  0  0  0  0  0  0  0  0  0
   -2.0556    0.3070    0.0030 H   0  0  0  0  0  0  0  0  0  0  0  0
    5.0227   -0.6545    1.5093 C   0  0  0  0  0  0  0  0  0  0  0  0
    5.9048   -0.9618    1.8550 H   0  0  0  0  0  0  0  0  0  0  0  0
    5.1760    0.1695    0.8125 H   0  0  0  0  0  0  0  0  0  0  0  0
    4.3765   -0.3338    2.3264 H   0  0  0  0  0  0  0  0  0  0  0  0
    4.3850   -1.8018    0.7394 C   0  0  0  0  0  0  0  0  0  0  0  0
    3.3690   -1.6162    0.0493 O   0  0  0  0  0  0  0  0  0  0  0  0
    5.0038   -2.9902    0.7875 N   0  0  0  0  0  0  0  0  0  0  0  0
    4.4326   -4.1378    0.0745 C   0  0  0  0  0  0  0  0  0  0  0  0
    4.0266   -3.8612   -0.7850 H   0  0  0  0  0  0  0  0  0  0  0  0
    3.6889   -4.5906    0.7302 H   0  0  0  0  0  0  0  0  0  0  0  0
    5.6539   -5.0316   -0.1153 C   0  0  0  0  0  0  0  0  0  0  0  0
    5.3858   -5.9675   -0.2828 H   0  0  0  0  0  0  0  0  0  0  0  0
    6.2361   -4.6885   -0.8342 H   0  0  0  0  0  0  0  0  0  0  0  0
    6.3048   -4.8888    1.2213 C   0  0  0  0  0  0  0  0  0  0  0  0
    5.7648   -5.3009    1.9305 H   0  0  0  0  0  0  0  0  0  0  0  0
    7.2280   -5.2245    1.2093 H   0  0  0  0  0  0  0  0  0  0  0  0
    6.3026   -3.3514    1.3798 C   0  0  0  0  0  0  0  0  0  0  0  0
    6.3433   -3.1023    2.3358 H   0  0  0  0  0  0  0  0  0  0  0  0
    7.0533   -2.9502    0.8739 H   0  0  0  0  0  0  0  0  0  0  0  0
  1  5  1  0
  5  6  2  0
  6  8  1  0
  8 10  2  0
 10 12  1  0
 12  5  1  0
  1  2  1  0
  1  3  1  0
  1  4  1  0
  6  7  1  0
  8  9  1  0
 10 11  1  0
 12 13  1  0
 14 18  1  0
 18 19  2  0
 18 20  1  0
 20 21  1  0
 21 24  1  0
 24 27  1  0
 27 30  1  0
 30 20  1  0
 14 15  1  0
 14 16  1  0
 14 17  1  0
 21 22  1  0
 21 23  1  0
 24 25  1  0
 24 26  1  0
 27 28  1  0
 27 29  1  0
 30 31  1  0
 30 32  1  0
M  CHG  1   8   1
M  END
>  <PDB_ID>  (7) 
pdb1c3x

>  <RESIDUE_NAME>  (7) 
HIP   PRO

>  <FRAG_NAME>  (7) 
MIMM   N1PA

>  <FRAG_ATOM_NUM>  (7) 
fragi: 13  fragj: 19

>  <atom.prop.CHAIN_ID>  (7) 
A A A A A A A A A A A A A Z Z Z Z Z Z Z Z Z Z Z Z Z Z Z Z Z Z Z

>  <atom.prop.IS_HEAVY_ATOM>  (7) 
1 0 0 0 1 1 0 1 0 1 0 1 0 1 0 0 0 1 1 1 1 0 0 1 0 0 1 0 0 1 0 0

>  <DIFUSE_FUNC_ATOM>  (7) 
n/a

>  <FINAL_SINGLE_POINT_ENERGY>  (7) 
0

>  <NONCOV_INTER_ENERGY_QM>  (7) 
0

>  <FF_Energy>  (7) 
-18.71

>  <QM_Energy>  (7) 
-26.07

>  <Index>  (7) 
47

$$$$
MIMM-pdb2g6g-A-HIP-364:N1PA-pdb2g6g-A-PRO-441
     RDKit          3D

 32 32  0  0  0  0  0  0  0  0999 V2000
   -0.6759    2.7364   -0.0099 C   0  0  0  0  0  0  0  0  0  0  0  0
    0.1243    3.3407    0.0962 H   0  0  0  0  0  0  0  0  0  0  0  0
   -1.2731    2.8642    0.7936 H   0  0  0  0  0  0  0  0  0  0  0  0
   -1.2229    3.0272   -0.9068 H   0  0  0  0  0  0  0  0  0  0  0  0
   -0.1963    1.3198   -0.0154 C   0  0  0  0  0  0  0  0  0  0  0  0
    1.0557    0.8007   -0.0000 C   0  0  0  0  0  0  0  0  0  0  0  0
    1.9093    1.3137    0.0094 H   0  0  0  0  0  0  0  0  0  0  0  0
    0.9277   -0.5666    0.0018 N   0  0  0  0  0  4  0  0  0  0  0  0
    1.6848   -1.2225   -0.0008 H   0  0  0  0  0  0  0  0  0  0  0  0
   -0.3555   -0.8760    0.0059 C   0  0  0  0  0  0  0  0  0  0  0  0
   -0.7314   -1.7982    0.0136 H   0  0  0  0  0  0  0  0  0  0  0  0
   -1.0557    0.2444    0.0000 N   0  0  0  0  0  0  0  0  0  0  0  0
   -2.0539    0.3037    0.0050 H   0  0  0  0  0  0  0  0  0  0  0  0
   -5.8416    1.9115   -0.6309 C   0  0  0  0  0  0  0  0  0  0  0  0
   -6.7839    1.6574   -0.4155 H   0  0  0  0  0  0  0  0  0  0  0  0
   -5.6329    2.8945   -0.2088 H   0  0  0  0  0  0  0  0  0  0  0  0
   -5.7137    1.9185   -1.7134 H   0  0  0  0  0  0  0  0  0  0  0  0
   -4.9060    0.9168    0.0072 C   0  0  0  0  0  0  0  0  0  0  0  0
   -3.7761    0.7385   -0.4733 O   0  0  0  0  0  0  0  0  0  0  0  0
   -5.3784    0.2631    1.0906 N   0  0  0  0  0  0  0  0  0  0  0  0
   -4.5351   -0.5389    1.9622 C   0  0  0  0  0  0  0  0  0  0  0  0
   -3.8869    0.0520    2.4779 H   0  0  0  0  0  0  0  0  0  0  0  0
   -3.9961   -1.3223    1.4293 H   0  0  0  0  0  0  0  0  0  0  0  0
   -5.5277   -1.1469    2.9597 C   0  0  0  0  0  0  0  0  0  0  0  0
   -5.3141   -2.1130    3.1291 H   0  0  0  0  0  0  0  0  0  0  0  0
   -5.5027   -0.6521    3.8325 H   0  0  0  0  0  0  0  0  0  0  0  0
   -6.8764   -1.0081    2.3079 C   0  0  0  0  0  0  0  0  0  0  0  0
   -7.0466   -1.7826    1.6997 H   0  0  0  0  0  0  0  0  0  0  0  0
   -7.5924   -0.9656    3.0043 H   0  0  0  0  0  0  0  0  0  0  0  0
   -6.7758    0.2701    1.5486 C   0  0  0  0  0  0  0  0  0  0  0  0
   -7.3988    0.2891    0.7680 H   0  0  0  0  0  0  0  0  0  0  0  0
   -6.9485    1.0648    2.1317 H   0  0  0  0  0  0  0  0  0  0  0  0
  1  5  1  0
  5  6  2  0
  6  8  1  0
  8 10  2  0
 10 12  1  0
 12  5  1  0
  1  2  1  0
  1  3  1  0
  1  4  1  0
  6  7  1  0
  8  9  1  0
 10 11  1  0
 12 13  1  0
 14 18  1  0
 18 19  2  0
 18 20  1  0
 20 21  1  0
 21 24  1  0
 24 27  1  0
 27 30  1  0
 30 20  1  0
 14 15  1  0
 14 16  1  0
 14 17  1  0
 21 22  1  0
 21 23  1  0
 24 25  1  0
 24 26  1  0
 27 28  1  0
 27 29  1  0
 30 31  1  0
 30 32  1  0
M  CHG  1   8   1
M  END
>  <PDB_ID>  (8) 
pdb2g6g

>  <RESIDUE_NAME>  (8) 
HIP   PRO

>  <FRAG_NAME>  (8) 
MIMM   N1PA

>  <FRAG_ATOM_NUM>  (8) 
fragi: 13  fragj: 19

>  <atom.prop.CHAIN_ID>  (8) 
A A A A A A A A A A A A A Z Z Z Z Z Z Z Z Z Z Z Z Z Z Z Z Z Z Z

>  <atom.prop.IS_HEAVY_ATOM>  (8) 
1 0 0 0 1 1 0 1 0 1 0 1 0 1 0 0 0 1 1 1 1 0 0 1 0 0 1 0 0 1 0 0

>  <DIFUSE_FUNC_ATOM>  (8) 
n/a

>  <FINAL_SINGLE_POINT_ENERGY>  (8) 
0

>  <NONCOV_INTER_ENERGY_QM>  (8) 
0

>  <FF_Energy>  (8) 
-19.81

>  <QM_Energy>  (8) 
-26.04

>  <Index>  (8) 
88

$$$$
MIMM-pdb1g13-C-HIP-106:N1PA-pdb1g13-C-PRO-89
     RDKit          3D

 32 32  0  0  0  0  0  0  0  0999 V2000
   -0.6662    2.7342   -0.0280 C   0  0  0  0  0  0  0  0  0  0  0  0
   -1.4996    2.7816   -0.5957 H   0  0  0  0  0  0  0  0  0  0  0  0
    0.0435    3.2997   -0.4698 H   0  0  0  0  0  0  0  0  0  0  0  0
   -0.8871    3.1560    0.9525 H   0  0  0  0  0  0  0  0  0  0  0  0
   -0.1932    1.3201   -0.0006 C   0  0  0  0  0  0  0  0  0  0  0  0
    1.0560    0.8003    0.0000 C   0  0  0  0  0  0  0  0  0  0  0  0
    1.9107    1.3120    0.0003 H   0  0  0  0  0  0  0  0  0  0  0  0
    0.9269   -0.5667    0.0015 N   0  0  0  0  0  4  0  0  0  0  0  0
    1.6836   -1.2228    0.0020 H   0  0  0  0  0  0  0  0  0  0  0  0
   -0.3579   -0.8765   -0.0003 C   0  0  0  0  0  0  0  0  0  0  0  0
   -0.7338   -1.7982   -0.0008 H   0  0  0  0  0  0  0  0  0  0  0  0
   -1.0560    0.2445   -0.0000 N   0  0  0  0  0  0  0  0  0  0  0  0
   -2.0542    0.3074    0.0001 H   0  0  0  0  0  0  0  0  0  0  0  0
    2.5982   -3.8940    2.0231 C   0  0  0  0  0  0  0  0  0  0  0  0
    2.6472   -4.8828    2.0587 H   0  0  0  0  0  0  0  0  0  0  0  0
    3.3452   -3.5207    2.7236 H   0  0  0  0  0  0  0  0  0  0  0  0
    1.6184   -3.4694    2.2416 H   0  0  0  0  0  0  0  0  0  0  0  0
    3.0560   -3.4858    0.6278 C   0  0  0  0  0  0  0  0  0  0  0  0
    2.6645   -2.4418    0.1058 O   0  0  0  0  0  0  0  0  0  0  0  0
    3.9201   -4.3121    0.0169 N   0  0  0  0  0  0  0  0  0  0  0  0
    4.4945   -4.1161   -1.3186 C   0  0  0  0  0  0  0  0  0  0  0  0
    5.1499   -3.3292   -1.3094 H   0  0  0  0  0  0  0  0  0  0  0  0
    3.7633   -3.9886   -2.1169 H   0  0  0  0  0  0  0  0  0  0  0  0
    5.3389   -5.3734   -1.5127 C   0  0  0  0  0  0  0  0  0  0  0  0
    4.7998   -6.1028   -1.9268 H   0  0  0  0  0  0  0  0  0  0  0  0
    6.1389   -5.1817   -2.0743 H   0  0  0  0  0  0  0  0  0  0  0  0
    5.7382   -5.7311   -0.1150 C   0  0  0  0  0  0  0  0  0  0  0  0
    6.0459   -6.6709   -0.0686 H   0  0  0  0  0  0  0  0  0  0  0  0
    6.4350   -5.1119    0.2183 H   0  0  0  0  0  0  0  0  0  0  0  0
    4.4451   -5.5453    0.6259 C   0  0  0  0  0  0  0  0  0  0  0  0
    3.8219   -6.3056    0.4715 H   0  0  0  0  0  0  0  0  0  0  0  0
    4.5970   -5.4181    1.6019 H   0  0  0  0  0  0  0  0  0  0  0  0
  1  5  1  0
  5  6  2  0
  6  8  1  0
  8 10  2  0
 10 12  1  0
 12  5  1  0
  1  2  1  0
  1  3  1  0
  1  4  1  0
  6  7  1  0
  8  9  1  0
 10 11  1  0
 12 13  1  0
 14 18  1  0
 18 19  2  0
 18 20  1  0
 20 21  1  0
 21 24  1  0
 24 27  1  0
 27 30  1  0
 30 20  1  0
 14 15  1  0
 14 16  1  0
 14 17  1  0
 21 22  1  0
 21 23  1  0
 24 25  1  0
 24 26  1  0
 27 28  1  0
 27 29  1  0
 30 31  1  0
 30 32  1  0
M  CHG  1   8   1
M  END
>  <PDB_ID>  (9) 
pdb1g13

>  <RESIDUE_NAME>  (9) 
HIP   PRO

>  <FRAG_NAME>  (9) 
MIMM   N1PA

>  <FRAG_ATOM_NUM>  (9) 
fragi: 13  fragj: 19

>  <atom.prop.CHAIN_ID>  (9) 
A A A A A A A A A A A A A Z Z Z Z Z Z Z Z Z Z Z Z Z Z Z Z Z Z Z

>  <atom.prop.IS_HEAVY_ATOM>  (9) 
1 0 0 0 1 1 0 1 0 1 0 1 0 1 0 0 0 1 1 1 1 0 0 1 0 0 1 0 0 1 0 0

>  <DIFUSE_FUNC_ATOM>  (9) 
n/a

>  <FINAL_SINGLE_POINT_ENERGY>  (9) 
0

>  <NONCOV_INTER_ENERGY_QM>  (9) 
0

>  <FF_Energy>  (9) 
-17.15

>  <QM_Energy>  (9) 
-26.75

>  <Index>  (9) 
109

$$$$
MIMM-pdb1gec-E-HIP-81:N1PA-pdb1gec-E-PRO-103
     RDKit          3D

 32 32  0  0  0  0  0  0  0  0999 V2000
   -0.6581    2.7284   -0.0970 C   0  0  0  0  0  0  0  0  0  0  0  0
   -1.6053    2.7277   -0.4435 H   0  0  0  0  0  0  0  0  0  0  0  0
   -0.0805    3.2129   -0.7677 H   0  0  0  0  0  0  0  0  0  0  0  0
   -0.6241    3.2599    0.8541 H   0  0  0  0  0  0  0  0  0  0  0  0
   -0.1907    1.3156   -0.0146 C   0  0  0  0  0  0  0  0  0  0  0  0
    1.0580    0.7986    0.0000 C   0  0  0  0  0  0  0  0  0  0  0  0
    1.9118    1.3117    0.0040 H   0  0  0  0  0  0  0  0  0  0  0  0
    0.9245   -0.5620    0.0087 N   0  0  0  0  0  4  0  0  0  0  0  0
    1.6798   -1.2238    0.0160 H   0  0  0  0  0  0  0  0  0  0  0  0
   -0.3605   -0.8735    0.0045 C   0  0  0  0  0  0  0  0  0  0  0  0
   -0.7337   -1.7970    0.0059 H   0  0  0  0  0  0  0  0  0  0  0  0
   -1.0580    0.2448    0.0000 N   0  0  0  0  0  0  0  0  0  0  0  0
   -2.0540    0.3105    0.0056 H   0  0  0  0  0  0  0  0  0  0  0  0
    1.5730   -3.7285    0.4952 C   0  0  0  0  0  0  0  0  0  0  0  0
    0.5990   -4.0733    0.6531 H   0  0  0  0  0  0  0  0  0  0  0  0
    2.1345   -4.6094    0.5261 H   0  0  0  0  0  0  0  0  0  0  0  0
    1.6342   -3.3162   -0.5119 H   0  0  0  0  0  0  0  0  0  0  0  0
    1.9741   -2.8687    1.7178 C   0  0  0  0  0  0  0  0  0  0  0  0
    3.1766   -2.6665    1.9682 O   0  0  0  0  0  0  0  0  0  0  0  0
    1.0073   -2.5398    2.6054 N   0  0  0  0  0  0  0  0  0  0  0  0
    1.0966   -1.7375    3.8413 C   0  0  0  0  0  0  0  0  0  0  0  0
    0.1677   -1.2919    4.0394 H   0  0  0  0  0  0  0  0  0  0  0  0
    1.8754   -0.9856    3.9688 H   0  0  0  0  0  0  0  0  0  0  0  0
    1.1245   -2.8281    4.9353 C   0  0  0  0  0  0  0  0  0  0  0  0
    2.0540   -3.0372    5.2166 H   0  0  0  0  0  0  0  0  0  0  0  0
    0.5722   -2.5714    5.7188 H   0  0  0  0  0  0  0  0  0  0  0  0
    0.4949   -4.0928    4.2510 C   0  0  0  0  0  0  0  0  0  0  0  0
    1.1820   -4.8121    4.2019 H   0  0  0  0  0  0  0  0  0  0  0  0
   -0.2849   -4.3980    4.7892 H   0  0  0  0  0  0  0  0  0  0  0  0
    0.0595   -3.6437    2.8466 C   0  0  0  0  0  0  0  0  0  0  0  0
    0.1849   -4.3706    2.1924 H   0  0  0  0  0  0  0  0  0  0  0  0
   -0.8723   -3.3182    2.8568 H   0  0  0  0  0  0  0  0  0  0  0  0
  1  5  1  0
  5  6  2  0
  6  8  1  0
  8 10  2  0
 10 12  1  0
 12  5  1  0
  1  2  1  0
  1  3  1  0
  1  4  1  0
  6  7  1  0
  8  9  1  0
 10 11  1  0
 12 13  1  0
 14 18  1  0
 18 19  2  0
 18 20  1  0
 20 21  1  0
 21 24  1  0
 24 27  1  0
 27 30  1  0
 30 20  1  0
 14 15  1  0
 14 16  1  0
 14 17  1  0
 21 22  1  0
 21 23  1  0
 24 25  1  0
 24 26  1  0
 27 28  1  0
 27 29  1  0
 30 31  1  0
 30 32  1  0
M  CHG  1   8   1
M  END
>  <PDB_ID>  (10) 
pdb1gec

>  <RESIDUE_NAME>  (10) 
HIP   PRO

>  <FRAG_NAME>  (10) 
MIMM   N1PA

>  <FRAG_ATOM_NUM>  (10) 
fragi: 13  fragj: 19

>  <atom.prop.CHAIN_ID>  (10) 
A A A A A A A A A A A A A Z Z Z Z Z Z Z Z Z Z Z Z Z Z Z Z Z Z Z

>  <atom.prop.IS_HEAVY_ATOM>  (10) 
1 0 0 0 1 1 0 1 0 1 0 1 0 1 0 0 0 1 1 1 1 0 0 1 0 0 1 0 0 1 0 0

>  <DIFUSE_FUNC_ATOM>  (10) 
n/a

>  <FINAL_SINGLE_POINT_ENERGY>  (10) 
0

>  <NONCOV_INTER_ENERGY_QM>  (10) 
0

>  <FF_Energy>  (10) 
-0.13

>  <QM_Energy>  (10) 
-6.76

>  <Index>  (10) 
120

$$$$
MIMM-pdb1j2a-A-HIP-144:N1PA-pdb1j2a-A-PRO-153
     RDKit          3D

 32 32  0  0  0  0  0  0  0  0999 V2000
   -0.6711    2.7438    0.0330 C   0  0  0  0  0  0  0  0  0  0  0  0
   -1.3700    2.8585   -0.6815 H   0  0  0  0  0  0  0  0  0  0  0  0
    0.1089    3.3403   -0.1860 H   0  0  0  0  0  0  0  0  0  0  0  0
   -1.0910    3.0473    0.9920 H   0  0  0  0  0  0  0  0  0  0  0  0
   -0.1967    1.3212    0.0016 C   0  0  0  0  0  0  0  0  0  0  0  0
    1.0556    0.8026   -0.0000 C   0  0  0  0  0  0  0  0  0  0  0  0
    1.9089    1.3155    0.0003 H   0  0  0  0  0  0  0  0  0  0  0  0
    0.9280   -0.5672   -0.0006 N   0  0  0  0  0  4  0  0  0  0  0  0
    1.6861   -1.2217   -0.0019 H   0  0  0  0  0  0  0  0  0  0  0  0
   -0.3557   -0.8781   -0.0011 C   0  0  0  0  0  0  0  0  0  0  0  0
   -0.7313   -1.7999   -0.0010 H   0  0  0  0  0  0  0  0  0  0  0  0
   -1.0556    0.2433    0.0000 N   0  0  0  0  0  0  0  0  0  0  0  0
   -2.0548    0.3028   -0.0013 H   0  0  0  0  0  0  0  0  0  0  0  0
   -5.0317    0.4082   -2.0866 C   0  0  0  0  0  0  0  0  0  0  0  0
   -5.8816   -0.0347   -2.3626 H   0  0  0  0  0  0  0  0  0  0  0  0
   -5.1935    1.4861   -2.0817 H   0  0  0  0  0  0  0  0  0  0  0  0
   -4.2095    0.1270   -2.7447 H   0  0  0  0  0  0  0  0  0  0  0  0
   -4.7029   -0.0456   -0.6651 C   0  0  0  0  0  0  0  0  0  0  0  0
   -3.7723    0.4612   -0.0336 O   0  0  0  0  0  0  0  0  0  0  0  0
   -5.4743   -1.0030   -0.1343 N   0  0  0  0  0  0  0  0  0  0  0  0
   -5.2350   -1.5017    1.2231 C   0  0  0  0  0  0  0  0  0  0  0  0
   -5.4263   -0.7761    1.9069 H   0  0  0  0  0  0  0  0  0  0  0  0
   -4.2293   -1.8994    1.3593 H   0  0  0  0  0  0  0  0  0  0  0  0
   -6.2955   -2.5875    1.3851 C   0  0  0  0  0  0  0  0  0  0  0  0
   -5.9595   -3.4668    1.0574 H   0  0  0  0  0  0  0  0  0  0  0  0
   -6.5848   -2.6664    2.3351 H   0  0  0  0  0  0  0  0  0  0  0  0
   -7.4268   -2.0945    0.5229 C   0  0  0  0  0  0  0  0  0  0  0  0
   -8.0370   -2.8399    0.2893 H   0  0  0  0  0  0  0  0  0  0  0  0
   -7.9186   -1.3642    0.9785 H   0  0  0  0  0  0  0  0  0  0  0  0
   -6.7062   -1.5788   -0.7053 C   0  0  0  0  0  0  0  0  0  0  0  0
   -6.4903   -2.3182   -1.3347 H   0  0  0  0  0  0  0  0  0  0  0  0
   -7.2397   -0.8779   -1.1707 H   0  0  0  0  0  0  0  0  0  0  0  0
  1  5  1  0
  5  6  2  0
  6  8  1  0
  8 10  2  0
 10 12  1  0
 12  5  1  0
  1  2  1  0
  1  3  1  0
  1  4  1  0
  6  7  1  0
  8  9  1  0
 10 11  1  0
 12 13  1  0
 14 18  1  0
 18 19  2  0
 18 20  1  0
 20 21  1  0
 21 24  1  0
 24 27  1  0
 27 30  1  0
 30 20  1  0
 14 15  1  0
 14 16  1  0
 14 17  1  0
 21 22  1  0
 21 23  1  0
 24 25  1  0
 24 26  1  0
 27 28  1  0
 27 29  1  0
 30 31  1  0
 30 32  1  0
M  CHG  1   8   1
M  END
>  <PDB_ID>  (11) 
pdb1j2a

>  <RESIDUE_NAME>  (11) 
HIP   PRO

>  <FRAG_NAME>  (11) 
MIMM   N1PA

>  <FRAG_ATOM_NUM>  (11) 
fragi: 13  fragj: 19

>  <atom.prop.CHAIN_ID>  (11) 
A A A A A A A A A A A A A Z Z Z Z Z Z Z Z Z Z Z Z Z Z Z Z Z Z Z

>  <atom.prop.IS_HEAVY_ATOM>  (11) 
1 0 0 0 1 1 0 1 0 1 0 1 0 1 0 0 0 1 1 1 1 0 0 1 0 0 1 0 0 1 0 0

>  <DIFUSE_FUNC_ATOM>  (11) 
n/a

>  <FINAL_SINGLE_POINT_ENERGY>  (11) 
0

>  <NONCOV_INTER_ENERGY_QM>  (11) 
0

>  <FF_Energy>  (11) 
-19.82

>  <QM_Energy>  (11) 
-26.16

>  <Index>  (11) 
160

$$$$
MIMM-pdb2pmb-B-HIP-369:N1PA-pdb2pmb-B-PRO-415
     RDKit          3D

 32 32  0  0  0  0  0  0  0  0999 V2000
   -0.6759    2.7323    0.0233 C   0  0  0  0  0  0  0  0  0  0  0  0
   -1.5579    2.7632   -0.4704 H   0  0  0  0  0  0  0  0  0  0  0  0
   -0.0110    3.2857   -0.5005 H   0  0  0  0  0  0  0  0  0  0  0  0
   -0.8026    3.1664    1.0150 H   0  0  0  0  0  0  0  0  0  0  0  0
   -0.1966    1.3152    0.0247 C   0  0  0  0  0  0  0  0  0  0  0  0
    1.0490    0.8015    0.0000 C   0  0  0  0  0  0  0  0  0  0  0  0
    1.9047    1.3163   -0.0059 H   0  0  0  0  0  0  0  0  0  0  0  0
    0.9236   -0.5615   -0.0138 N   0  0  0  0  0  4  0  0  0  0  0  0
    1.6865   -1.2153   -0.0264 H   0  0  0  0  0  0  0  0  0  0  0  0
   -0.3504   -0.8741   -0.0093 C   0  0  0  0  0  0  0  0  0  0  0  0
   -0.7270   -1.7975   -0.0109 H   0  0  0  0  0  0  0  0  0  0  0  0
   -1.0490    0.2424   -0.0000 N   0  0  0  0  0  0  0  0  0  0  0  0
   -2.0504    0.3000   -0.0100 H   0  0  0  0  0  0  0  0  0  0  0  0
    3.4318   -3.4338   -2.0509 C   0  0  0  0  0  0  0  0  0  0  0  0
    3.7746   -4.3801   -1.8921 H   0  0  0  0  0  0  0  0  0  0  0  0
    4.0634   -3.0075   -2.7258 H   0  0  0  0  0  0  0  0  0  0  0  0
    2.4329   -3.4863   -2.4839 H   0  0  0  0  0  0  0  0  0  0  0  0
    3.4971   -2.6533   -0.7439 C   0  0  0  0  0  0  0  0  0  0  0  0
    2.4626   -2.1844   -0.2477 O   0  0  0  0  0  0  0  0  0  0  0  0
    4.7205   -2.4983   -0.1827 N   0  0  0  0  0  0  0  0  0  0  0  0
    4.9676   -1.8951    1.1360 C   0  0  0  0  0  0  0  0  0  0  0  0
    4.5939   -2.4955    1.8740 H   0  0  0  0  0  0  0  0  0  0  0  0
    4.5919   -0.8782    1.2500 H   0  0  0  0  0  0  0  0  0  0  0  0
    6.5002   -1.9083    1.2570 C   0  0  0  0  0  0  0  0  0  0  0  0
    6.8293   -1.0439    1.6508 H   0  0  0  0  0  0  0  0  0  0  0  0
    6.8004   -2.6642    1.8463 H   0  0  0  0  0  0  0  0  0  0  0  0
    7.0064   -2.0852   -0.1417 C   0  0  0  0  0  0  0  0  0  0  0  0
    7.1054   -1.1919   -0.5916 H   0  0  0  0  0  0  0  0  0  0  0  0
    7.9024   -2.5409   -0.1321 H   0  0  0  0  0  0  0  0  0  0  0  0
    5.9785   -2.9244   -0.8239 C   0  0  0  0  0  0  0  0  0  0  0  0
    5.9450   -2.7454   -1.8073 H   0  0  0  0  0  0  0  0  0  0  0  0
    6.1338   -3.9020   -0.6699 H   0  0  0  0  0  0  0  0  0  0  0  0
  1  5  1  0
  5  6  2  0
  6  8  1  0
  8 10  2  0
 10 12  1  0
 12  5  1  0
  1  2  1  0
  1  3  1  0
  1  4  1  0
  6  7  1  0
  8  9  1  0
 10 11  1  0
 12 13  1  0
 14 18  1  0
 18 19  2  0
 18 20  1  0
 20 21  1  0
 21 24  1  0
 24 27  1  0
 27 30  1  0
 30 20  1  0
 14 15  1  0
 14 16  1  0
 14 17  1  0
 21 22  1  0
 21 23  1  0
 24 25  1  0
 24 26  1  0
 27 28  1  0
 27 29  1  0
 30 31  1  0
 30 32  1  0
M  CHG  1   8   1
M  END
>  <PDB_ID>  (12) 
pdb2pmb

>  <RESIDUE_NAME>  (12) 
HIP   PRO

>  <FRAG_NAME>  (12) 
MIMM   N1PA

>  <FRAG_ATOM_NUM>  (12) 
fragi: 13  fragj: 19

>  <atom.prop.CHAIN_ID>  (12) 
A A A A A A A A A A A A A Z Z Z Z Z Z Z Z Z Z Z Z Z Z Z Z Z Z Z

>  <atom.prop.IS_HEAVY_ATOM>  (12) 
1 0 0 0 1 1 0 1 0 1 0 1 0 1 0 0 0 1 1 1 1 0 0 1 0 0 1 0 0 1 0 0

>  <DIFUSE_FUNC_ATOM>  (12) 
n/a

>  <FINAL_SINGLE_POINT_ENERGY>  (12) 
0

>  <NONCOV_INTER_ENERGY_QM>  (12) 
0

>  <FF_Energy>  (12) 
56.06

>  <QM_Energy>  (12) 
-15.29

>  <Index>  (12) 
197

$$$$
MIMM-pdb2pmb-D-HIP-369:N1PA-pdb2pmb-D-PRO-415
     RDKit          3D

 32 32  0  0  0  0  0  0  0  0999 V2000
   -0.6815    2.7120   -0.0384 C   0  0  0  0  0  0  0  0  0  0  0  0
   -1.4955    2.7601   -0.6268 H   0  0  0  0  0  0  0  0  0  0  0  0
    0.0359    3.2925   -0.4373 H   0  0  0  0  0  0  0  0  0  0  0  0
   -0.9277    3.0652    0.9631 H   0  0  0  0  0  0  0  0  0  0  0  0
   -0.1943    1.3108   -0.0372 C   0  0  0  0  0  0  0  0  0  0  0  0
    1.0486    0.8013    0.0000 C   0  0  0  0  0  0  0  0  0  0  0  0
    1.9044    1.3161    0.0114 H   0  0  0  0  0  0  0  0  0  0  0  0
    0.9227   -0.5595    0.0205 N   0  0  0  0  0  4  0  0  0  0  0  0
    1.6846   -1.2152    0.0370 H   0  0  0  0  0  0  0  0  0  0  0  0
   -0.3526   -0.8723    0.0127 C   0  0  0  0  0  0  0  0  0  0  0  0
   -0.7284   -1.7959    0.0167 H   0  0  0  0  0  0  0  0  0  0  0  0
   -1.0486    0.2433   -0.0000 N   0  0  0  0  0  0  0  0  0  0  0  0
   -2.0503    0.3020    0.0145 H   0  0  0  0  0  0  0  0  0  0  0  0
    3.1558   -3.6940   -1.9920 C   0  0  0  0  0  0  0  0  0  0  0  0
    3.3954   -4.6810   -1.9741 H   0  0  0  0  0  0  0  0  0  0  0  0
    3.9188   -3.2132   -2.4600 H   0  0  0  0  0  0  0  0  0  0  0  0
    2.2432   -3.5608   -2.5729 H   0  0  0  0  0  0  0  0  0  0  0  0
    3.0416   -3.1802   -0.5613 C   0  0  0  0  0  0  0  0  0  0  0  0
    1.9847   -2.6762   -0.1697 O   0  0  0  0  0  0  0  0  0  0  0  0
    4.1273   -3.3183    0.2325 N   0  0  0  0  0  0  0  0  0  0  0  0
    4.1898   -2.8737    1.6361 C   0  0  0  0  0  0  0  0  0  0  0  0
    3.6140   -3.4927    2.2251 H   0  0  0  0  0  0  0  0  0  0  0  0
    3.9337   -1.8316    1.8270 H   0  0  0  0  0  0  0  0  0  0  0  0
    5.6444   -3.1659    2.0522 C   0  0  0  0  0  0  0  0  0  0  0  0
    6.0380   -2.3610    2.5209 H   0  0  0  0  0  0  0  0  0  0  0  0
    5.6705   -3.9419    2.6991 H   0  0  0  0  0  0  0  0  0  0  0  0
    6.3746   -3.4758    0.8072 C   0  0  0  0  0  0  0  0  0  0  0  0
    6.8440   -2.6474    0.4519 H   0  0  0  0  0  0  0  0  0  0  0  0
    7.0945   -4.1720    0.9786 H   0  0  0  0  0  0  0  0  0  0  0  0
    5.3755   -3.9818   -0.1819 C   0  0  0  0  0  0  0  0  0  0  0  0
    5.6156   -3.7209   -1.1175 H   0  0  0  0  0  0  0  0  0  0  0  0
    5.2747   -4.9777   -0.1324 H   0  0  0  0  0  0  0  0  0  0  0  0
  1  5  1  0
  5  6  2  0
  6  8  1  0
  8 10  2  0
 10 12  1  0
 12  5  1  0
  1  2  1  0
  1  3  1  0
  1  4  1  0
  6  7  1  0
  8  9  1  0
 10 11  1  0
 12 13  1  0
 14 18  1  0
 18 19  2  0
 18 20  1  0
 20 21  1  0
 21 24  1  0
 24 27  1  0
 27 30  1  0
 30 20  1  0
 14 15  1  0
 14 16  1  0
 14 17  1  0
 21 22  1  0
 21 23  1  0
 24 25  1  0
 24 26  1  0
 27 28  1  0
 27 29  1  0
 30 31  1  0
 30 32  1  0
M  CHG  1   8   1
M  END
>  <PDB_ID>  (13) 
pdb2pmb

>  <RESIDUE_NAME>  (13) 
HIP   PRO

>  <FRAG_NAME>  (13) 
MIMM   N1PA

>  <FRAG_ATOM_NUM>  (13) 
fragi: 13  fragj: 19

>  <atom.prop.CHAIN_ID>  (13) 
A A A A A A A A A A A A A Z Z Z Z Z Z Z Z Z Z Z Z Z Z Z Z Z Z Z

>  <atom.prop.IS_HEAVY_ATOM>  (13) 
1 0 0 0 1 1 0 1 0 1 0 1 0 1 0 0 0 1 1 1 1 0 0 1 0 0 1 0 0 1 0 0

>  <DIFUSE_FUNC_ATOM>  (13) 
n/a

>  <FINAL_SINGLE_POINT_ENERGY>  (13) 
0

>  <NONCOV_INTER_ENERGY_QM>  (13) 
0

>  <FF_Energy>  (13) 
-6.13

>  <QM_Energy>  (13) 
-21.77

>  <Index>  (13) 
198

$$$$
MIMM-pdb2rck-A-HIP-141:N1PA-pdb2rck-A-PRO-217
     RDKit          3D

 32 32  0  0  0  0  0  0  0  0999 V2000
   -0.6718    2.7398   -0.0116 C   0  0  0  0  0  0  0  0  0  0  0  0
   -0.0431    3.2905    0.5477 H   0  0  0  0  0  0  0  0  0  0  0  0
   -1.5847    2.7706    0.4105 H   0  0  0  0  0  0  0  0  0  0  0  0
   -0.7303    3.1752   -1.0091 H   0  0  0  0  0  0  0  0  0  0  0  0
   -0.1947    1.3202    0.0013 C   0  0  0  0  0  0  0  0  0  0  0  0
    1.0575    0.8010   -0.0000 C   0  0  0  0  0  0  0  0  0  0  0  0
    1.9108    1.3133    0.0001 H   0  0  0  0  0  0  0  0  0  0  0  0
    0.9273   -0.5658    0.0003 N   0  0  0  0  0  4  0  0  0  0  0  0
    1.6840   -1.2235    0.0001 H   0  0  0  0  0  0  0  0  0  0  0  0
   -0.3581   -0.8766   -0.0010 C   0  0  0  0  0  0  0  0  0  0  0  0
   -0.7326   -1.7991   -0.0016 H   0  0  0  0  0  0  0  0  0  0  0  0
   -1.0575    0.2437    0.0000 N   0  0  0  0  0  0  0  0  0  0  0  0
   -2.0552    0.3054   -0.0007 H   0  0  0  0  0  0  0  0  0  0  0  0
   -5.4577   -1.4333    0.4085 C   0  0  0  0  0  0  0  0  0  0  0  0
   -5.6488   -2.4056    0.2165 H   0  0  0  0  0  0  0  0  0  0  0  0
   -5.0371   -1.3364    1.4094 H   0  0  0  0  0  0  0  0  0  0  0  0
   -6.4320   -0.9447    0.4036 H   0  0  0  0  0  0  0  0  0  0  0  0
   -4.4736   -0.9317   -0.6941 C   0  0  0  0  0  0  0  0  0  0  0  0
   -3.5047   -0.2283   -0.3777 O   0  0  0  0  0  0  0  0  0  0  0  0
   -4.6789   -1.3440   -1.9763 N   0  0  0  0  0  0  0  0  0  0  0  0
   -3.7672   -1.0111   -3.1151 C   0  0  0  0  0  0  0  0  0  0  0  0
   -2.7981   -1.3514   -2.8881 H   0  0  0  0  0  0  0  0  0  0  0  0
   -3.6952   -0.0036   -3.5249 H   0  0  0  0  0  0  0  0  0  0  0  0
   -4.1784   -2.0143   -4.2143 C   0  0  0  0  0  0  0  0  0  0  0  0
   -4.2010   -1.5593   -5.1128 H   0  0  0  0  0  0  0  0  0  0  0  0
   -3.5179   -2.7733   -4.2611 H   0  0  0  0  0  0  0  0  0  0  0  0
   -5.5445   -2.5169   -3.8371 C   0  0  0  0  0  0  0  0  0  0  0  0
   -6.2531   -2.0717   -4.4195 H   0  0  0  0  0  0  0  0  0  0  0  0
   -5.6090   -3.5175   -4.0183 H   0  0  0  0  0  0  0  0  0  0  0  0
   -5.7955   -2.2241   -2.3799 C   0  0  0  0  0  0  0  0  0  0  0  0
   -6.6744   -1.7562   -2.2463 H   0  0  0  0  0  0  0  0  0  0  0  0
   -5.7925   -3.0667   -1.8304 H   0  0  0  0  0  0  0  0  0  0  0  0
  1  5  1  0
  5  6  2  0
  6  8  1  0
  8 10  2  0
 10 12  1  0
 12  5  1  0
  1  2  1  0
  1  3  1  0
  1  4  1  0
  6  7  1  0
  8  9  1  0
 10 11  1  0
 12 13  1  0
 14 18  1  0
 18 19  2  0
 18 20  1  0
 20 21  1  0
 21 24  1  0
 24 27  1  0
 27 30  1  0
 30 20  1  0
 14 15  1  0
 14 16  1  0
 14 17  1  0
 21 22  1  0
 21 23  1  0
 24 25  1  0
 24 26  1  0
 27 28  1  0
 27 29  1  0
 30 31  1  0
 30 32  1  0
M  CHG  1   8   1
M  END
>  <PDB_ID>  (14) 
pdb2rck

>  <RESIDUE_NAME>  (14) 
HIP   PRO

>  <FRAG_NAME>  (14) 
MIMM   N1PA

>  <FRAG_ATOM_NUM>  (14) 
fragi: 13  fragj: 19

>  <atom.prop.CHAIN_ID>  (14) 
A A A A A A A A A A A A A Z Z Z Z Z Z Z Z Z Z Z Z Z Z Z Z Z Z Z

>  <atom.prop.IS_HEAVY_ATOM>  (14) 
1 0 0 0 1 1 0 1 0 1 0 1 0 1 0 0 0 1 1 1 1 0 0 1 0 0 1 0 0 1 0 0

>  <DIFUSE_FUNC_ATOM>  (14) 
n/a

>  <FINAL_SINGLE_POINT_ENERGY>  (14) 
0

>  <NONCOV_INTER_ENERGY_QM>  (14) 
0

>  <FF_Energy>  (14) 
-17.37

>  <QM_Energy>  (14) 
-24.51

>  <Index>  (14) 
230

$$$$
MIMM-pdb2vov-A-HIP-222:N1PA-pdb2vov-A-PRO-237
     RDKit          3D

 32 32  0  0  0  0  0  0  0  0999 V2000
   -0.6744    2.7385   -0.0226 C   0  0  0  0  0  0  0  0  0  0  0  0
   -0.8423    3.0251    0.9256 H   0  0  0  0  0  0  0  0  0  0  0  0
   -1.5419    2.7734   -0.5283 H   0  0  0  0  0  0  0  0  0  0  0  0
    0.0337    3.4278   -0.4825 H   0  0  0  0  0  0  0  0  0  0  0  0
   -0.1960    1.3203   -0.0082 C   0  0  0  0  0  0  0  0  0  0  0  0
    1.0561    0.8038    0.0000 C   0  0  0  0  0  0  0  0  0  0  0  0
    1.9092    1.3151    0.0023 H   0  0  0  0  0  0  0  0  0  0  0  0
    0.9267   -0.5658    0.0061 N   0  0  0  0  0  4  0  0  0  0  0  0
    1.6857   -1.2205    0.0117 H   0  0  0  0  0  0  0  0  0  0  0  0
   -0.3559   -0.8793    0.0022 C   0  0  0  0  0  0  0  0  0  0  0  0
   -0.7307   -1.8007    0.0021 H   0  0  0  0  0  0  0  0  0  0  0  0
   -1.0561    0.2424   -0.0000 N   0  0  0  0  0  0  0  0  0  0  0  0
   -2.0545    0.3018    0.0028 H   0  0  0  0  0  0  0  0  0  0  0  0
   -4.8997   -0.5476   -1.4039 C   0  0  0  0  0  0  0  0  0  0  0  0
   -5.5058   -0.1837   -2.1287 H   0  0  0  0  0  0  0  0  0  0  0  0
   -3.9544   -0.8486   -1.8556 H   0  0  0  0  0  0  0  0  0  0  0  0
   -5.3896   -1.4246   -0.9807 H   0  0  0  0  0  0  0  0  0  0  0  0
   -4.7158    0.5319   -0.3374 C   0  0  0  0  0  0  0  0  0  0  0  0
   -3.6849    0.5978    0.3216 O   0  0  0  0  0  0  0  0  0  0  0  0
   -5.7251    1.3917   -0.1568 N   0  0  0  0  0  0  0  0  0  0  0  0
   -5.5981    2.4562    0.8397 C   0  0  0  0  0  0  0  0  0  0  0  0
   -4.7626    3.0118    0.6652 H   0  0  0  0  0  0  0  0  0  0  0  0
   -5.6031    2.0978    1.8691 H   0  0  0  0  0  0  0  0  0  0  0  0
   -6.8275    3.3439    0.5607 C   0  0  0  0  0  0  0  0  0  0  0  0
   -7.1704    3.7380    1.4148 H   0  0  0  0  0  0  0  0  0  0  0  0
   -6.5858    4.0812   -0.0701 H   0  0  0  0  0  0  0  0  0  0  0  0
   -7.8101    2.4133   -0.0417 C   0  0  0  0  0  0  0  0  0  0  0  0
   -8.3290    1.9273    0.6762 H   0  0  0  0  0  0  0  0  0  0  0  0
   -8.4728    2.9166   -0.6154 H   0  0  0  0  0  0  0  0  0  0  0  0
   -7.0179    1.4469   -0.8696 C   0  0  0  0  0  0  0  0  0  0  0  0
   -7.4422    0.5437   -0.8905 H   0  0  0  0  0  0  0  0  0  0  0  0
   -6.8879    1.7791   -1.8023 H   0  0  0  0  0  0  0  0  0  0  0  0
  1  5  1  0
  5  6  2  0
  6  8  1  0
  8 10  2  0
 10 12  1  0
 12  5  1  0
  1  2  1  0
  1  3  1  0
  1  4  1  0
  6  7  1  0
  8  9  1  0
 10 11  1  0
 12 13  1  0
 14 18  1  0
 18 19  2  0
 18 20  1  0
 20 21  1  0
 21 24  1  0
 24 27  1  0
 27 30  1  0
 30 20  1  0
 14 15  1  0
 14 16  1  0
 14 17  1  0
 21 22  1  0
 21 23  1  0
 24 25  1  0
 24 26  1  0
 27 28  1  0
 27 29  1  0
 30 31  1  0
 30 32  1  0
M  CHG  1   8   1
M  END
>  <PDB_ID>  (15) 
pdb2vov

>  <RESIDUE_NAME>  (15) 
HIP   PRO

>  <FRAG_NAME>  (15) 
MIMM   N1PA

>  <FRAG_ATOM_NUM>  (15) 
fragi: 13  fragj: 19

>  <atom.prop.CHAIN_ID>  (15) 
A A A A A A A A A A A A A Z Z Z Z Z Z Z Z Z Z Z Z Z Z Z Z Z Z Z

>  <atom.prop.IS_HEAVY_ATOM>  (15) 
1 0 0 0 1 1 0 1 0 1 0 1 0 1 0 0 0 1 1 1 1 0 0 1 0 0 1 0 0 1 0 0

>  <DIFUSE_FUNC_ATOM>  (15) 
n/a

>  <FINAL_SINGLE_POINT_ENERGY>  (15) 
0

>  <NONCOV_INTER_ENERGY_QM>  (15) 
0

>  <FF_Energy>  (15) 
-19.78

>  <QM_Energy>  (15) 
-27.18

>  <Index>  (15) 
248

$$$$
MIMM-pdb1rju-V-HIP-1:N1PA-pdb1rju-V-PRO-23
     RDKit          3D

 32 32  0  0  0  0  0  0  0  0999 V2000
   -0.7357    2.7157    0.1033 C   0  0  0  0  0  0  0  0  0  0  0  0
   -1.5501    2.7639   -0.4967 H   0  0  0  0  0  0  0  0  0  0  0  0
   -0.0333    3.3320   -0.2871 H   0  0  0  0  0  0  0  0  0  0  0  0
   -1.0056    3.0714    1.0977 H   0  0  0  0  0  0  0  0  0  0  0  0
   -0.2081    1.3248    0.0619 C   0  0  0  0  0  0  0  0  0  0  0  0
    1.0595    0.8183   -0.0000 C   0  0  0  0  0  0  0  0  0  0  0  0
    1.9041    1.3252    0.0059 H   0  0  0  0  0  0  0  0  0  0  0  0
    0.9347   -0.5764   -0.0730 N   0  0  0  0  0  4  0  0  0  0  0  0
    1.6930   -1.2118   -0.1547 H   0  0  0  0  0  0  0  0  0  0  0  0
   -0.3482   -0.8849   -0.0164 C   0  0  0  0  0  0  0  0  0  0  0  0
   -0.7267   -1.8069    0.0111 H   0  0  0  0  0  0  0  0  0  0  0  0
   -1.0595    0.2403    0.0000 N   0  0  0  0  0  0  0  0  0  0  0  0
   -2.0569    0.2904   -0.0294 H   0  0  0  0  0  0  0  0  0  0  0  0
    3.1796   -3.9119    1.4064 C   0  0  0  0  0  0  0  0  0  0  0  0
    4.0595   -4.3289    1.6322 H   0  0  0  0  0  0  0  0  0  0  0  0
    3.0595   -2.9989    1.9896 H   0  0  0  0  0  0  0  0  0  0  0  0
    2.3573   -4.6035    1.5899 H   0  0  0  0  0  0  0  0  0  0  0  0
    3.2051   -3.5694   -0.1068 C   0  0  0  0  0  0  0  0  0  0  0  0
    2.5900   -2.6087   -0.5285 O   0  0  0  0  0  0  0  0  0  0  0  0
    3.8325   -4.4044   -0.9063 N   0  0  0  0  0  0  0  0  0  0  0  0
    3.6328   -4.2863   -2.3377 C   0  0  0  0  0  0  0  0  0  0  0  0
    3.9106   -3.3881   -2.6687 H   0  0  0  0  0  0  0  0  0  0  0  0
    2.5797   -4.4759   -2.5454 H   0  0  0  0  0  0  0  0  0  0  0  0
    4.4656   -5.4180   -2.9105 C   0  0  0  0  0  0  0  0  0  0  0  0
    4.0252   -5.7918   -3.7360 H   0  0  0  0  0  0  0  0  0  0  0  0
    5.3804   -5.0833   -3.1666 H   0  0  0  0  0  0  0  0  0  0  0  0
    4.5176   -6.3820   -1.8379 C   0  0  0  0  0  0  0  0  0  0  0  0
    3.7117   -7.0251   -1.8848 H   0  0  0  0  0  0  0  0  0  0  0  0
    5.3430   -6.9933   -1.9368 H   0  0  0  0  0  0  0  0  0  0  0  0
    4.5446   -5.6790   -0.5575 C   0  0  0  0  0  0  0  0  0  0  0  0
    4.0405   -6.1506    0.1591 H   0  0  0  0  0  0  0  0  0  0  0  0
    5.4666   -5.4660   -0.2470 H   0  0  0  0  0  0  0  0  0  0  0  0
  1  5  1  0
  5  6  2  0
  6  8  1  0
  8 10  2  0
 10 12  1  0
 12  5  1  0
  1  2  1  0
  1  3  1  0
  1  4  1  0
  6  7  1  0
  8  9  1  0
 10 11  1  0
 12 13  1  0
 14 18  1  0
 18 19  2  0
 18 20  1  0
 20 21  1  0
 21 24  1  0
 24 27  1  0
 27 30  1  0
 30 20  1  0
 14 15  1  0
 14 16  1  0
 14 17  1  0
 21 22  1  0
 21 23  1  0
 24 25  1  0
 24 26  1  0
 27 28  1  0
 27 29  1  0
 30 31  1  0
 30 32  1  0
M  CHG  1   8   1
M  END
>  <PDB_ID>  (16) 
pdb1rju

>  <RESIDUE_NAME>  (16) 
HIP   PRO

>  <FRAG_NAME>  (16) 
MIMM   N1PA

>  <FRAG_ATOM_NUM>  (16) 
fragi: 13  fragj: 19

>  <atom.prop.CHAIN_ID>  (16) 
A A A A A A A A A A A A A Z Z Z Z Z Z Z Z Z Z Z Z Z Z Z Z Z Z Z

>  <atom.prop.IS_HEAVY_ATOM>  (16) 
1 0 0 0 1 1 0 1 0 1 0 1 0 1 0 0 0 1 1 1 1 0 0 1 0 0 1 0 0 1 0 0

>  <DIFUSE_FUNC_ATOM>  (16) 
n/a

>  <FINAL_SINGLE_POINT_ENERGY>  (16) 
0

>  <NONCOV_INTER_ENERGY_QM>  (16) 
0

>  <FF_Energy>  (16) 
-19.21

>  <QM_Energy>  (16) 
-26.86

>  <Index>  (16) 
284

$$$$
MIMM-pdb1rh1-A-HIP-91:N1PA-pdb1rh1-A-PRO-235
     RDKit          3D

 32 32  0  0  0  0  0  0  0  0999 V2000
   -0.5442    2.7812    0.0048 C   0  0  0  0  0  0  0  0  0  0  0  0
    0.3050    3.2719    0.2552 H   0  0  0  0  0  0  0  0  0  0  0  0
   -1.2153    2.9344    0.7462 H   0  0  0  0  0  0  0  0  0  0  0  0
   -0.9358    3.1807   -0.9307 H   0  0  0  0  0  0  0  0  0  0  0  0
   -0.2147    1.2862   -0.0008 C   0  0  0  0  0  0  0  0  0  0  0  0
    1.0640    0.7683    0.0000 C   0  0  0  0  0  0  0  0  0  0  0  0
    1.8956    1.3209    0.0022 H   0  0  0  0  0  0  0  0  0  0  0  0
    0.9312   -0.5350   -0.0010 N   0  0  0  0  0  4  0  0  0  0  0  0
    1.6792   -1.2260   -0.0028 H   0  0  0  0  0  0  0  0  0  0  0  0
   -0.3459   -0.8417    0.0002 C   0  0  0  0  0  0  0  0  0  0  0  0
   -0.7165   -1.7775    0.0018 H   0  0  0  0  0  0  0  0  0  0  0  0
   -1.0640    0.2580   -0.0000 N   0  0  0  0  0  0  0  0  0  0  0  0
   -2.0606    0.2986    0.0001 H   0  0  0  0  0  0  0  0  0  0  0  0
    4.3467   -2.7822   -1.6942 C   0  0  0  0  0  0  0  0  0  0  0  0
    4.7822   -3.5043   -2.2607 H   0  0  0  0  0  0  0  0  0  0  0  0
    3.6050   -2.2689   -2.3060 H   0  0  0  0  0  0  0  0  0  0  0  0
    5.1308   -2.1105   -1.3449 H   0  0  0  0  0  0  0  0  0  0  0  0
    3.7496   -3.4405   -0.4598 C   0  0  0  0  0  0  0  0  0  0  0  0
    2.7418   -2.9564    0.0625 O   0  0  0  0  0  0  0  0  0  0  0  0
    4.3202   -4.5549    0.0142 N   0  0  0  0  0  0  0  0  0  0  0  0
    4.0143   -5.1344    1.3167 C   0  0  0  0  0  0  0  0  0  0  0  0
    3.0981   -5.5747    1.3060 H   0  0  0  0  0  0  0  0  0  0  0  0
    4.0806   -4.4116    2.1299 H   0  0  0  0  0  0  0  0  0  0  0  0
    4.9994   -6.2742    1.4206 C   0  0  0  0  0  0  0  0  0  0  0  0
    5.8893   -5.9604    1.7305 H   0  0  0  0  0  0  0  0  0  0  0  0
    4.6600   -6.9976    2.0102 H   0  0  0  0  0  0  0  0  0  0  0  0
    5.0768   -6.7500   -0.0080 C   0  0  0  0  0  0  0  0  0  0  0  0
    5.8738   -7.3114   -0.1445 H   0  0  0  0  0  0  0  0  0  0  0  0
    4.2483   -7.2161   -0.2635 H   0  0  0  0  0  0  0  0  0  0  0  0
    5.2080   -5.4306   -0.7449 C   0  0  0  0  0  0  0  0  0  0  0  0
    6.1475   -5.0993   -0.7194 H   0  0  0  0  0  0  0  0  0  0  0  0
    4.9045   -5.5177   -1.6916 H   0  0  0  0  0  0  0  0  0  0  0  0
  1  5  1  0
  5  6  2  0
  6  8  1  0
  8 10  2  0
 10 12  1  0
 12  5  1  0
  1  2  1  0
  1  3  1  0
  1  4  1  0
  6  7  1  0
  8  9  1  0
 10 11  1  0
 12 13  1  0
 14 18  1  0
 18 19  2  0
 18 20  1  0
 20 21  1  0
 21 24  1  0
 24 27  1  0
 27 30  1  0
 30 20  1  0
 14 15  1  0
 14 16  1  0
 14 17  1  0
 21 22  1  0
 21 23  1  0
 24 25  1  0
 24 26  1  0
 27 28  1  0
 27 29  1  0
 30 31  1  0
 30 32  1  0
M  CHG  1   8   1
M  END
>  <PDB_ID>  (17) 
pdb1rh1

>  <RESIDUE_NAME>  (17) 
HIP   PRO

>  <FRAG_NAME>  (17) 
MIMM   N1PA

>  <FRAG_ATOM_NUM>  (17) 
fragi: 13  fragj: 19

>  <atom.prop.CHAIN_ID>  (17) 
A A A A A A A A A A A A A Z Z Z Z Z Z Z Z Z Z Z Z Z Z Z Z Z Z Z

>  <atom.prop.IS_HEAVY_ATOM>  (17) 
1 0 0 0 1 1 0 1 0 1 0 1 0 1 0 0 0 1 1 1 1 0 0 1 0 0 1 0 0 1 0 0

>  <DIFUSE_FUNC_ATOM>  (17) 
n/a

>  <FINAL_SINGLE_POINT_ENERGY>  (17) 
0

>  <NONCOV_INTER_ENERGY_QM>  (17) 
0

>  <FF_Energy>  (17) 
-18.63

>  <QM_Energy>  (17) 
-25.1

>  <Index>  (17) 
287

$$$$
MIMM-pdb2xu2-A-HIP-68:N1PA-pdb2xu2-A-PRO-116
     RDKit          3D

 32 32  0  0  0  0  0  0  0  0999 V2000
   -0.6618    2.7472    0.0069 C   0  0  0  0  0  0  0  0  0  0  0  0
   -0.8376    3.0146   -0.9511 H   0  0  0  0  0  0  0  0  0  0  0  0
    0.0871    3.3268    0.3573 H   0  0  0  0  0  0  0  0  0  0  0  0
   -1.5587    2.9438    0.5942 H   0  0  0  0  0  0  0  0  0  0  0  0
   -0.1951    1.3203    0.0181 C   0  0  0  0  0  0  0  0  0  0  0  0
    1.0548    0.7989    0.0000 C   0  0  0  0  0  0  0  0  0  0  0  0
    1.9102    1.3123   -0.0099 H   0  0  0  0  0  0  0  0  0  0  0  0
    0.9283   -0.5682    0.0001 N   0  0  0  0  0  4  0  0  0  0  0  0
    1.6846   -1.2232    0.0048 H   0  0  0  0  0  0  0  0  0  0  0  0
   -0.3552   -0.8752   -0.0085 C   0  0  0  0  0  0  0  0  0  0  0  0
   -0.7331   -1.7973   -0.0182 H   0  0  0  0  0  0  0  0  0  0  0  0
   -1.0548    0.2463   -0.0000 N   0  0  0  0  0  0  0  0  0  0  0  0
   -2.0535    0.3056   -0.0065 H   0  0  0  0  0  0  0  0  0  0  0  0
   -5.4473   -0.1983   -0.5134 C   0  0  0  0  0  0  0  0  0  0  0  0
   -6.1882   -0.8688   -0.3969 H   0  0  0  0  0  0  0  0  0  0  0  0
   -5.8862    0.7868   -0.6718 H   0  0  0  0  0  0  0  0  0  0  0  0
   -4.8473   -0.5075   -1.3693 H   0  0  0  0  0  0  0  0  0  0  0  0
   -4.5722   -0.2130    0.7421 C   0  0  0  0  0  0  0  0  0  0  0  0
   -3.4408    0.2527    0.7210 O   0  0  0  0  0  0  0  0  0  0  0  0
   -5.0735   -0.8064    1.8314 N   0  0  0  0  0  0  0  0  0  0  0  0
   -4.2317   -0.9967    3.0023 C   0  0  0  0  0  0  0  0  0  0  0  0
   -4.0725   -0.1193    3.4842 H   0  0  0  0  0  0  0  0  0  0  0  0
   -3.2780   -1.4667    2.7623 H   0  0  0  0  0  0  0  0  0  0  0  0
   -5.0822   -1.9140    3.8953 C   0  0  0  0  0  0  0  0  0  0  0  0
   -4.8108   -2.8764    3.7635 H   0  0  0  0  0  0  0  0  0  0  0  0
   -4.9443   -1.6799    4.8654 H   0  0  0  0  0  0  0  0  0  0  0  0
   -6.4787   -1.6852    3.4767 C   0  0  0  0  0  0  0  0  0  0  0  0
   -7.0456   -2.4993    3.6569 H   0  0  0  0  0  0  0  0  0  0  0  0
   -6.8796   -0.9071    3.9769 H   0  0  0  0  0  0  0  0  0  0  0  0
   -6.4124   -1.3977    2.0109 C   0  0  0  0  0  0  0  0  0  0  0  0
   -6.4996   -2.2338    1.4647 H   0  0  0  0  0  0  0  0  0  0  0  0
   -7.1217   -0.7475    1.7273 H   0  0  0  0  0  0  0  0  0  0  0  0
  1  5  1  0
  5  6  2  0
  6  8  1  0
  8 10  2  0
 10 12  1  0
 12  5  1  0
  1  2  1  0
  1  3  1  0
  1  4  1  0
  6  7  1  0
  8  9  1  0
 10 11  1  0
 12 13  1  0
 14 18  1  0
 18 19  2  0
 18 20  1  0
 20 21  1  0
 21 24  1  0
 24 27  1  0
 27 30  1  0
 30 20  1  0
 14 15  1  0
 14 16  1  0
 14 17  1  0
 21 22  1  0
 21 23  1  0
 24 25  1  0
 24 26  1  0
 27 28  1  0
 27 29  1  0
 30 31  1  0
 30 32  1  0
M  CHG  1   8   1
M  END
>  <PDB_ID>  (18) 
pdb2xu2

>  <RESIDUE_NAME>  (18) 
HIP   PRO

>  <FRAG_NAME>  (18) 
MIMM   N1PA

>  <FRAG_ATOM_NUM>  (18) 
fragi: 13  fragj: 19

>  <atom.prop.CHAIN_ID>  (18) 
A A A A A A A A A A A A A Z Z Z Z Z Z Z Z Z Z Z Z Z Z Z Z Z Z Z

>  <atom.prop.IS_HEAVY_ATOM>  (18) 
1 0 0 0 1 1 0 1 0 1 0 1 0 1 0 0 0 1 1 1 1 0 0 1 0 0 1 0 0 1 0 0

>  <DIFUSE_FUNC_ATOM>  (18) 
n/a

>  <FINAL_SINGLE_POINT_ENERGY>  (18) 
0

>  <NONCOV_INTER_ENERGY_QM>  (18) 
0

>  <FF_Energy>  (18) 
-15.21

>  <QM_Energy>  (18) 
-24.64

>  <Index>  (18) 
289

$$$$
MIMM-pdb1stf-E-HIP-81:N1PA-pdb1stf-E-PRO-102
     RDKit          3D

 32 32  0  0  0  0  0  0  0  0999 V2000
   -0.5127    2.8104    0.0175 C   0  0  0  0  0  0  0  0  0  0  0  0
   -1.4384    2.8876   -0.3030 H   0  0  0  0  0  0  0  0  0  0  0  0
    0.1249    3.2846   -0.5597 H   0  0  0  0  0  0  0  0  0  0  0  0
   -0.4398    3.1869    1.0378 H   0  0  0  0  0  0  0  0  0  0  0  0
   -0.1351    1.3133   -0.0029 C   0  0  0  0  0  0  0  0  0  0  0  0
    1.0820    0.7564   -0.0000 C   0  0  0  0  0  0  0  0  0  0  0  0
    1.9639    1.2495    0.0005 H   0  0  0  0  0  0  0  0  0  0  0  0
    0.9479   -0.6168    0.0041 N   0  0  0  0  0  4  0  0  0  0  0  0
    1.6531   -1.2919    0.0074 H   0  0  0  0  0  0  0  0  0  0  0  0
   -0.4113   -0.8951    0.0001 C   0  0  0  0  0  0  0  0  0  0  0  0
   -0.8127   -1.7708   -0.0011 H   0  0  0  0  0  0  0  0  0  0  0  0
   -1.0820    0.3179    0.0000 N   0  0  0  0  0  0  0  0  0  0  0  0
   -2.0537    0.4109    0.0009 H   0  0  0  0  0  0  0  0  0  0  0  0
    3.9758   -3.4890   -1.8637 C   0  0  0  0  0  0  0  0  0  0  0  0
    4.1981   -4.4661   -1.9500 H   0  0  0  0  0  0  0  0  0  0  0  0
    4.8226   -2.9593   -1.9873 H   0  0  0  0  0  0  0  0  0  0  0  0
    3.2559   -3.2102   -2.6332 H   0  0  0  0  0  0  0  0  0  0  0  0
    3.4128   -3.2213   -0.4755 C   0  0  0  0  0  0  0  0  0  0  0  0
    2.2154   -3.3739   -0.2242 O   0  0  0  0  0  0  0  0  0  0  0  0
    4.2878   -3.0600    0.4549 N   0  0  0  0  0  0  0  0  0  0  0  0
    3.8191   -2.9858    1.8359 C   0  0  0  0  0  0  0  0  0  0  0  0
    3.1943   -3.7510    2.0478 H   0  0  0  0  0  0  0  0  0  0  0  0
    3.3358   -2.0331    2.0527 H   0  0  0  0  0  0  0  0  0  0  0  0
    5.0733   -3.2590    2.6818 C   0  0  0  0  0  0  0  0  0  0  0  0
    5.1675   -2.5709    3.4141 H   0  0  0  0  0  0  0  0  0  0  0  0
    5.0238   -4.1690    3.1127 H   0  0  0  0  0  0  0  0  0  0  0  0
    6.2693   -3.1888    1.7410 C   0  0  0  0  0  0  0  0  0  0  0  0
    6.7998   -2.3501    1.9211 H   0  0  0  0  0  0  0  0  0  0  0  0
    6.8740   -3.9813    1.8954 H   0  0  0  0  0  0  0  0  0  0  0  0
    5.7353   -3.1904    0.3128 C   0  0  0  0  0  0  0  0  0  0  0  0
    6.1174   -2.4218   -0.2096 H   0  0  0  0  0  0  0  0  0  0  0  0
    5.9770   -4.0475   -0.1552 H   0  0  0  0  0  0  0  0  0  0  0  0
  1  5  1  0
  5  6  2  0
  6  8  1  0
  8 10  2  0
 10 12  1  0
 12  5  1  0
  1  2  1  0
  1  3  1  0
  1  4  1  0
  6  7  1  0
  8  9  1  0
 10 11  1  0
 12 13  1  0
 14 18  1  0
 18 19  2  0
 18 20  1  0
 20 21  1  0
 21 24  1  0
 24 27  1  0
 27 30  1  0
 30 20  1  0
 14 15  1  0
 14 16  1  0
 14 17  1  0
 21 22  1  0
 21 23  1  0
 24 25  1  0
 24 26  1  0
 27 28  1  0
 27 29  1  0
 30 31  1  0
 30 32  1  0
M  CHG  1   8   1
M  END
>  <PDB_ID>  (19) 
pdb1stf

>  <RESIDUE_NAME>  (19) 
HIP   PRO

>  <FRAG_NAME>  (19) 
MIMM   N1PA

>  <FRAG_ATOM_NUM>  (19) 
fragi: 13  fragj: 19

>  <atom.prop.CHAIN_ID>  (19) 
A A A A A A A A A A A A A Z Z Z Z Z Z Z Z Z Z Z Z Z Z Z Z Z Z Z

>  <atom.prop.IS_HEAVY_ATOM>  (19) 
1 0 0 0 1 1 0 1 0 1 0 1 0 1 0 0 0 1 1 1 1 0 0 1 0 0 1 0 0 1 0 0

>  <DIFUSE_FUNC_ATOM>  (19) 
n/a

>  <FINAL_SINGLE_POINT_ENERGY>  (19) 
0

>  <NONCOV_INTER_ENERGY_QM>  (19) 
0

>  <FF_Energy>  (19) 
-14.15

>  <QM_Energy>  (19) 
-19.18

>  <Index>  (19) 
306

$$$$
MIMM-pdb1tp9-A-HIP-30:N1PA-pdb1tp9-A-PRO-11
     RDKit          3D

 32 32  0  0  0  0  0  0  0  0999 V2000
   -0.6853    2.7321   -0.1131 C   0  0  0  0  0  0  0  0  0  0  0  0
   -1.0541    2.9802    0.7919 H   0  0  0  0  0  0  0  0  0  0  0  0
   -1.4376    2.7798   -0.7825 H   0  0  0  0  0  0  0  0  0  0  0  0
    0.0720    3.4649   -0.3920 H   0  0  0  0  0  0  0  0  0  0  0  0
   -0.1919    1.3210   -0.0538 C   0  0  0  0  0  0  0  0  0  0  0  0
    1.0585    0.7967   -0.0000 C   0  0  0  0  0  0  0  0  0  0  0  0
    1.9133    1.3085    0.0279 H   0  0  0  0  0  0  0  0  0  0  0  0
    0.9298   -0.5725    0.0099 N   0  0  0  0  0  4  0  0  0  0  0  0
    1.6846   -1.2283    0.0074 H   0  0  0  0  0  0  0  0  0  0  0  0
   -0.3555   -0.8771    0.0215 C   0  0  0  0  0  0  0  0  0  0  0  0
   -0.7379   -1.7962    0.0439 H   0  0  0  0  0  0  0  0  0  0  0  0
   -1.0585    0.2511    0.0000 N   0  0  0  0  0  0  0  0  0  0  0  0
   -2.0532    0.3114    0.0188 H   0  0  0  0  0  0  0  0  0  0  0  0
    4.5914   -3.5646   -1.3864 C   0  0  0  0  0  0  0  0  0  0  0  0
    5.4264   -4.0153   -1.0636 H   0  0  0  0  0  0  0  0  0  0  0  0
    4.0738   -4.2401   -2.0674 H   0  0  0  0  0  0  0  0  0  0  0  0
    4.8651   -2.6557   -1.9221 H   0  0  0  0  0  0  0  0  0  0  0  0
    3.7088   -3.2576   -0.1779 C   0  0  0  0  0  0  0  0  0  0  0  0
    2.5379   -2.8450   -0.3392 O   0  0  0  0  0  0  0  0  0  0  0  0
    4.2125   -3.4342    1.0518 N   0  0  0  0  0  0  0  0  0  0  0  0
    3.4033   -3.1227    2.2421 C   0  0  0  0  0  0  0  0  0  0  0  0
    2.5382   -3.6557    2.2243 H   0  0  0  0  0  0  0  0  0  0  0  0
    3.2042   -2.0568    2.3525 H   0  0  0  0  0  0  0  0  0  0  0  0
    4.2526   -3.6507    3.4082 C   0  0  0  0  0  0  0  0  0  0  0  0
    4.1613   -2.9775    4.1916 H   0  0  0  0  0  0  0  0  0  0  0  0
    3.7960   -4.5103    3.7647 H   0  0  0  0  0  0  0  0  0  0  0  0
    5.4922   -3.8199    2.9569 C   0  0  0  0  0  0  0  0  0  0  0  0
    6.1505   -3.0388    3.1989 H   0  0  0  0  0  0  0  0  0  0  0  0
    5.9870   -4.6554    3.3565 H   0  0  0  0  0  0  0  0  0  0  0  0
    5.5197   -3.9713    1.4370 C   0  0  0  0  0  0  0  0  0  0  0  0
    6.2584   -3.4369    1.0418 H   0  0  0  0  0  0  0  0  0  0  0  0
    5.6062   -4.9281    1.1790 H   0  0  0  0  0  0  0  0  0  0  0  0
  1  5  1  0
  5  6  2  0
  6  8  1  0
  8 10  2  0
 10 12  1  0
 12  5  1  0
  1  2  1  0
  1  3  1  0
  1  4  1  0
  6  7  1  0
  8  9  1  0
 10 11  1  0
 12 13  1  0
 14 18  1  0
 18 19  2  0
 18 20  1  0
 20 21  1  0
 21 24  1  0
 24 27  1  0
 27 30  1  0
 30 20  1  0
 14 15  1  0
 14 16  1  0
 14 17  1  0
 21 22  1  0
 21 23  1  0
 24 25  1  0
 24 26  1  0
 27 28  1  0
 27 29  1  0
 30 31  1  0
 30 32  1  0
M  CHG  1   8   1
M  END
>  <PDB_ID>  (20) 
pdb1tp9

>  <RESIDUE_NAME>  (20) 
HIP   PRO

>  <FRAG_NAME>  (20) 
MIMM   N1PA

>  <FRAG_ATOM_NUM>  (20) 
fragi: 13  fragj: 19

>  <atom.prop.CHAIN_ID>  (20) 
A A A A A A A A A A A A A Z Z Z Z Z Z Z Z Z Z Z Z Z Z Z Z Z Z Z

>  <atom.prop.IS_HEAVY_ATOM>  (20) 
1 0 0 0 1 1 0 1 0 1 0 1 0 1 0 0 0 1 1 1 1 0 0 1 0 0 1 0 0 1 0 0

>  <DIFUSE_FUNC_ATOM>  (20) 
n/a

>  <FINAL_SINGLE_POINT_ENERGY>  (20) 
0

>  <NONCOV_INTER_ENERGY_QM>  (20) 
0

>  <FF_Energy>  (20) 
-19.23

>  <QM_Energy>  (20) 
-25.5

>  <Index>  (20) 
328

$$$$
MIMM-pdb1tp9-B-HIP-30:N1PA-pdb1tp9-B-PRO-11
     RDKit          3D

 32 32  0  0  0  0  0  0  0  0999 V2000
   -0.6653    2.7390    0.1034 C   0  0  0  0  0  0  0  0  0  0  0  0
   -1.0203    2.9385    1.0264 H   0  0  0  0  0  0  0  0  0  0  0  0
   -1.4251    2.8388   -0.5524 H   0  0  0  0  0  0  0  0  0  0  0  0
    0.1098    3.4652   -0.1418 H   0  0  0  0  0  0  0  0  0  0  0  0
   -0.2030    1.3213    0.0735 C   0  0  0  0  0  0  0  0  0  0  0  0
    1.0573    0.8105   -0.0000 C   0  0  0  0  0  0  0  0  0  0  0  0
    1.9052    1.3227   -0.0170 H   0  0  0  0  0  0  0  0  0  0  0  0
    0.9354   -0.5730   -0.0461 N   0  0  0  0  0  4  0  0  0  0  0  0
    1.6884   -1.2189   -0.0880 H   0  0  0  0  0  0  0  0  0  0  0  0
   -0.3575   -0.8784   -0.0254 C   0  0  0  0  0  0  0  0  0  0  0  0
   -0.7324   -1.8010   -0.0273 H   0  0  0  0  0  0  0  0  0  0  0  0
   -1.0573    0.2423    0.0000 N   0  0  0  0  0  0  0  0  0  0  0  0
   -2.0574    0.3012   -0.0303 H   0  0  0  0  0  0  0  0  0  0  0  0
    4.9707   -2.7210   -1.8199 C   0  0  0  0  0  0  0  0  0  0  0  0
    5.8358   -3.1863   -1.5752 H   0  0  0  0  0  0  0  0  0  0  0  0
    4.5191   -3.2249   -2.6745 H   0  0  0  0  0  0  0  0  0  0  0  0
    5.1413   -1.6968   -2.1515 H   0  0  0  0  0  0  0  0  0  0  0  0
    4.0611   -2.7502   -0.5759 C   0  0  0  0  0  0  0  0  0  0  0  0
    2.8591   -2.4546   -0.6844 O   0  0  0  0  0  0  0  0  0  0  0  0
    4.5212   -3.1084    0.6148 N   0  0  0  0  0  0  0  0  0  0  0  0
    3.6611   -3.0278    1.7969 C   0  0  0  0  0  0  0  0  0  0  0  0
    2.8254   -3.5852    1.6681 H   0  0  0  0  0  0  0  0  0  0  0  0
    3.4014   -1.9997    2.0495 H   0  0  0  0  0  0  0  0  0  0  0  0
    4.4958   -3.6120    2.9108 C   0  0  0  0  0  0  0  0  0  0  0  0
    4.3848   -3.0993    3.7593 H   0  0  0  0  0  0  0  0  0  0  0  0
    4.2803   -4.5728    3.0649 H   0  0  0  0  0  0  0  0  0  0  0  0
    5.9030   -3.4654    2.3895 C   0  0  0  0  0  0  0  0  0  0  0  0
    6.2754   -2.5620    2.6974 H   0  0  0  0  0  0  0  0  0  0  0  0
    6.4942   -4.1741    2.8345 H   0  0  0  0  0  0  0  0  0  0  0  0
    5.8690   -3.5913    0.9634 C   0  0  0  0  0  0  0  0  0  0  0  0
    6.5595   -3.0249    0.4949 H   0  0  0  0  0  0  0  0  0  0  0  0
    5.9777   -4.5423    0.6422 H   0  0  0  0  0  0  0  0  0  0  0  0
  1  5  1  0
  5  6  2  0
  6  8  1  0
  8 10  2  0
 10 12  1  0
 12  5  1  0
  1  2  1  0
  1  3  1  0
  1  4  1  0
  6  7  1  0
  8  9  1  0
 10 11  1  0
 12 13  1  0
 14 18  1  0
 18 19  2  0
 18 20  1  0
 20 21  1  0
 21 24  1  0
 24 27  1  0
 27 30  1  0
 30 20  1  0
 14 15  1  0
 14 16  1  0
 14 17  1  0
 21 22  1  0
 21 23  1  0
 24 25  1  0
 24 26  1  0
 27 28  1  0
 27 29  1  0
 30 31  1  0
 30 32  1  0
M  CHG  1   8   1
M  END
>  <PDB_ID>  (21) 
pdb1tp9

>  <RESIDUE_NAME>  (21) 
HIP   PRO

>  <FRAG_NAME>  (21) 
MIMM   N1PA

>  <FRAG_ATOM_NUM>  (21) 
fragi: 13  fragj: 19

>  <atom.prop.CHAIN_ID>  (21) 
A A A A A A A A A A A A A Z Z Z Z Z Z Z Z Z Z Z Z Z Z Z Z Z Z Z

>  <atom.prop.IS_HEAVY_ATOM>  (21) 
1 0 0 0 1 1 0 1 0 1 0 1 0 1 0 0 0 1 1 1 1 0 0 1 0 0 1 0 0 1 0 0

>  <DIFUSE_FUNC_ATOM>  (21) 
n/a

>  <FINAL_SINGLE_POINT_ENERGY>  (21) 
0

>  <NONCOV_INTER_ENERGY_QM>  (21) 
0

>  <FF_Energy>  (21) 
-19.12

>  <QM_Energy>  (21) 
-25.81

>  <Index>  (21) 
330

$$$$
MIMM-pdb1v6t-A-HIP-62:N1PA-pdb1v6t-A-PRO-110
     RDKit          3D

 32 32  0  0  0  0  0  0  0  0999 V2000
   -0.6660    2.7418   -0.0975 C   0  0  0  0  0  0  0  0  0  0  0  0
   -0.9814    2.9106   -1.0412 H   0  0  0  0  0  0  0  0  0  0  0  0
    0.1199    3.3478    0.0822 H   0  0  0  0  0  0  0  0  0  0  0  0
   -1.4701    2.9971    0.5925 H   0  0  0  0  0  0  0  0  0  0  0  0
   -0.1942    1.3212   -0.0070 C   0  0  0  0  0  0  0  0  0  0  0  0
    1.0554    0.8001   -0.0000 C   0  0  0  0  0  0  0  0  0  0  0  0
    1.9109    1.3125    0.0043 H   0  0  0  0  0  0  0  0  0  0  0  0
    0.9269   -0.5667    0.0012 N   0  0  0  0  0  4  0  0  0  0  0  0
    1.6840   -1.2231    0.0002 H   0  0  0  0  0  0  0  0  0  0  0  0
   -0.3565   -0.8765    0.0025 C   0  0  0  0  0  0  0  0  0  0  0  0
   -0.7328   -1.7990    0.0058 H   0  0  0  0  0  0  0  0  0  0  0  0
   -1.0554    0.2444   -0.0000 N   0  0  0  0  0  0  0  0  0  0  0  0
   -2.0542    0.3058    0.0023 H   0  0  0  0  0  0  0  0  0  0  0  0
   -5.6041   -0.0798    0.0939 C   0  0  0  0  0  0  0  0  0  0  0  0
   -6.3687   -0.6773    0.3157 H   0  0  0  0  0  0  0  0  0  0  0  0
   -5.9584    0.9494    0.0347 H   0  0  0  0  0  0  0  0  0  0  0  0
   -5.1260   -0.3844   -0.8370 H   0  0  0  0  0  0  0  0  0  0  0  0
   -4.5807   -0.1513    1.2174 C   0  0  0  0  0  0  0  0  0  0  0  0
   -3.4766    0.3728    1.0818 O   0  0  0  0  0  0  0  0  0  0  0  0
   -4.9352   -0.7916    2.3447 N   0  0  0  0  0  0  0  0  0  0  0  0
   -4.0041   -0.9051    3.4732 C   0  0  0  0  0  0  0  0  0  0  0  0
   -3.7919    0.0006    3.8510 H   0  0  0  0  0  0  0  0  0  0  0  0
   -3.0949   -1.4221    3.1664 H   0  0  0  0  0  0  0  0  0  0  0  0
   -4.8058   -1.6990    4.5028 C   0  0  0  0  0  0  0  0  0  0  0  0
   -4.6735   -2.6785    4.3806 H   0  0  0  0  0  0  0  0  0  0  0  0
   -4.5611   -1.4318    5.4298 H   0  0  0  0  0  0  0  0  0  0  0  0
   -6.2279   -1.3113    4.1930 C   0  0  0  0  0  0  0  0  0  0  0  0
   -6.8590   -1.9612    4.5854 H   0  0  0  0  0  0  0  0  0  0  0  0
   -6.4128   -0.3928    4.5058 H   0  0  0  0  0  0  0  0  0  0  0  0
   -6.2395   -1.3854    2.6830 C   0  0  0  0  0  0  0  0  0  0  0  0
   -6.2918   -2.3255    2.3677 H   0  0  0  0  0  0  0  0  0  0  0  0
   -6.9824   -0.8471    2.2997 H   0  0  0  0  0  0  0  0  0  0  0  0
  1  5  1  0
  5  6  2  0
  6  8  1  0
  8 10  2  0
 10 12  1  0
 12  5  1  0
  1  2  1  0
  1  3  1  0
  1  4  1  0
  6  7  1  0
  8  9  1  0
 10 11  1  0
 12 13  1  0
 14 18  1  0
 18 19  2  0
 18 20  1  0
 20 21  1  0
 21 24  1  0
 24 27  1  0
 27 30  1  0
 30 20  1  0
 14 15  1  0
 14 16  1  0
 14 17  1  0
 21 22  1  0
 21 23  1  0
 24 25  1  0
 24 26  1  0
 27 28  1  0
 27 29  1  0
 30 31  1  0
 30 32  1  0
M  CHG  1   8   1
M  END
>  <PDB_ID>  (22) 
pdb1v6t

>  <RESIDUE_NAME>  (22) 
HIP   PRO

>  <FRAG_NAME>  (22) 
MIMM   N1PA

>  <FRAG_ATOM_NUM>  (22) 
fragi: 13  fragj: 19

>  <atom.prop.CHAIN_ID>  (22) 
A A A A A A A A A A A A A Z Z Z Z Z Z Z Z Z Z Z Z Z Z Z Z Z Z Z

>  <atom.prop.IS_HEAVY_ATOM>  (22) 
1 0 0 0 1 1 0 1 0 1 0 1 0 1 0 0 0 1 1 1 1 0 0 1 0 0 1 0 0 1 0 0

>  <DIFUSE_FUNC_ATOM>  (22) 
n/a

>  <FINAL_SINGLE_POINT_ENERGY>  (22) 
0

>  <NONCOV_INTER_ENERGY_QM>  (22) 
0

>  <FF_Energy>  (22) 
-18.76

>  <QM_Energy>  (22) 
-24.52

>  <Index>  (22) 
336

$$$$
MIMM-pdb1vrg-E-HIP-294:N1PA-pdb1vrg-E-PRO-260
     RDKit          3D

 32 32  0  0  0  0  0  0  0  0999 V2000
   -0.6634    2.7396    0.0230 C   0  0  0  0  0  0  0  0  0  0  0  0
   -1.6707    2.7355    0.0907 H   0  0  0  0  0  0  0  0  0  0  0  0
   -0.4112    3.1774   -0.8511 H   0  0  0  0  0  0  0  0  0  0  0  0
   -0.2546    3.3277    0.8446 H   0  0  0  0  0  0  0  0  0  0  0  0
   -0.1920    1.3195   -0.0129 C   0  0  0  0  0  0  0  0  0  0  0  0
    1.0582    0.7970    0.0000 C   0  0  0  0  0  0  0  0  0  0  0  0
    1.9133    1.3099    0.0045 H   0  0  0  0  0  0  0  0  0  0  0  0
    0.9265   -0.5668    0.0070 N   0  0  0  0  0  4  0  0  0  0  0  0
    1.6822   -1.2260    0.0128 H   0  0  0  0  0  0  0  0  0  0  0  0
   -0.3577   -0.8744    0.0042 C   0  0  0  0  0  0  0  0  0  0  0  0
   -0.7346   -1.7964    0.0059 H   0  0  0  0  0  0  0  0  0  0  0  0
   -1.0582    0.2467    0.0000 N   0  0  0  0  0  0  0  0  0  0  0  0
   -2.0543    0.3092    0.0042 H   0  0  0  0  0  0  0  0  0  0  0  0
   -2.3622   -4.9478   -1.1821 C   0  0  0  0  0  0  0  0  0  0  0  0
   -1.6507   -5.4641   -1.6729 H   0  0  0  0  0  0  0  0  0  0  0  0
   -3.1936   -5.6318   -1.0120 H   0  0  0  0  0  0  0  0  0  0  0  0
   -2.7264   -4.1155   -1.7843 H   0  0  0  0  0  0  0  0  0  0  0  0
   -1.7304   -4.4681    0.1430 C   0  0  0  0  0  0  0  0  0  0  0  0
   -1.7083   -3.2648    0.4569 O   0  0  0  0  0  0  0  0  0  0  0  0
   -1.2324   -5.4228    0.9400 N   0  0  0  0  0  0  0  0  0  0  0  0
   -0.7848   -5.0377    2.2814 C   0  0  0  0  0  0  0  0  0  0  0  0
   -1.5524   -4.6353    2.8136 H   0  0  0  0  0  0  0  0  0  0  0  0
    0.0670   -4.3577    2.2805 H   0  0  0  0  0  0  0  0  0  0  0  0
   -0.3982   -6.3809    2.9409 C   0  0  0  0  0  0  0  0  0  0  0  0
    0.5938   -6.3939    3.1391 H   0  0  0  0  0  0  0  0  0  0  0  0
   -0.8876   -6.4872    3.8191 H   0  0  0  0  0  0  0  0  0  0  0  0
   -0.7713   -7.4458    1.9828 C   0  0  0  0  0  0  0  0  0  0  0  0
   -0.0173   -8.1446    1.9229 H   0  0  0  0  0  0  0  0  0  0  0  0
   -1.5878   -7.9642    2.3349 H   0  0  0  0  0  0  0  0  0  0  0  0
   -1.0516   -6.8573    0.6589 C   0  0  0  0  0  0  0  0  0  0  0  0
   -0.2893   -6.9890    0.0159 H   0  0  0  0  0  0  0  0  0  0  0  0
   -1.8873   -7.2357    0.2441 H   0  0  0  0  0  0  0  0  0  0  0  0
  1  5  1  0
  5  6  2  0
  6  8  1  0
  8 10  2  0
 10 12  1  0
 12  5  1  0
  1  2  1  0
  1  3  1  0
  1  4  1  0
  6  7  1  0
  8  9  1  0
 10 11  1  0
 12 13  1  0
 14 18  1  0
 18 19  2  0
 18 20  1  0
 20 21  1  0
 21 24  1  0
 24 27  1  0
 27 30  1  0
 30 20  1  0
 14 15  1  0
 14 16  1  0
 14 17  1  0
 21 22  1  0
 21 23  1  0
 24 25  1  0
 24 26  1  0
 27 28  1  0
 27 29  1  0
 30 31  1  0
 30 32  1  0
M  CHG  1   8   1
M  END
>  <PDB_ID>  (23) 
pdb1vrg

>  <RESIDUE_NAME>  (23) 
HIP   PRO

>  <FRAG_NAME>  (23) 
MIMM   N1PA

>  <FRAG_ATOM_NUM>  (23) 
fragi: 13  fragj: 19

>  <atom.prop.CHAIN_ID>  (23) 
A A A A A A A A A A A A A Z Z Z Z Z Z Z Z Z Z Z Z Z Z Z Z Z Z Z

>  <atom.prop.IS_HEAVY_ATOM>  (23) 
1 0 0 0 1 1 0 1 0 1 0 1 0 1 0 0 0 1 1 1 1 0 0 1 0 0 1 0 0 1 0 0

>  <DIFUSE_FUNC_ATOM>  (23) 
n/a

>  <FINAL_SINGLE_POINT_ENERGY>  (23) 
0

>  <NONCOV_INTER_ENERGY_QM>  (23) 
0

>  <FF_Energy>  (23) 
4.14

>  <QM_Energy>  (23) 
-18.88

>  <Index>  (23) 
360

$$$$
MIMM-pdb1xhn-D-HIP-28:N1PA-pdb1xhn-D-PRO-60
     RDKit          3D

 32 32  0  0  0  0  0  0  0  0999 V2000
   -0.6960    2.7263    0.0535 C   0  0  0  0  0  0  0  0  0  0  0  0
   -1.2374    2.9186   -0.7632 H   0  0  0  0  0  0  0  0  0  0  0  0
    0.0906    3.3407    0.0888 H   0  0  0  0  0  0  0  0  0  0  0  0
   -1.3136    2.8912    0.9363 H   0  0  0  0  0  0  0  0  0  0  0  0
   -0.1990    1.3201   -0.0239 C   0  0  0  0  0  0  0  0  0  0  0  0
    1.0567    0.8058   -0.0000 C   0  0  0  0  0  0  0  0  0  0  0  0
    1.9069    1.3185    0.0172 H   0  0  0  0  0  0  0  0  0  0  0  0
    0.9284   -0.5655   -0.0034 N   0  0  0  0  0  4  0  0  0  0  0  0
    1.6864   -1.2191   -0.0153 H   0  0  0  0  0  0  0  0  0  0  0  0
   -0.3560   -0.8775    0.0104 C   0  0  0  0  0  0  0  0  0  0  0  0
   -0.7294   -1.8013    0.0273 H   0  0  0  0  0  0  0  0  0  0  0  0
   -1.0567    0.2409    0.0000 N   0  0  0  0  0  0  0  0  0  0  0  0
   -2.0555    0.3000    0.0073 H   0  0  0  0  0  0  0  0  0  0  0  0
   -1.5980   -5.7510    0.5045 C   0  0  0  0  0  0  0  0  0  0  0  0
   -1.8850   -5.9344    1.4323 H   0  0  0  0  0  0  0  0  0  0  0  0
   -2.4033   -5.3065   -0.0802 H   0  0  0  0  0  0  0  0  0  0  0  0
   -1.3834   -6.6730   -0.0359 H   0  0  0  0  0  0  0  0  0  0  0  0
   -0.3919   -4.7629    0.4939 C   0  0  0  0  0  0  0  0  0  0  0  0
   -0.3686   -3.9050   -0.4238 O   0  0  0  0  0  0  0  0  0  0  0  0
    0.5276   -4.8642    1.4574 N   0  0  0  0  0  0  0  0  0  0  0  0
    1.6655   -3.9386    1.5828 C   0  0  0  0  0  0  0  0  0  0  0  0
    1.3659   -3.0712    2.0155 H   0  0  0  0  0  0  0  0  0  0  0  0
    2.1600   -3.7473    0.6304 H   0  0  0  0  0  0  0  0  0  0  0  0
    2.6054   -4.6486    2.5890 C   0  0  0  0  0  0  0  0  0  0  0  0
    3.2759   -5.2076    2.0908 H   0  0  0  0  0  0  0  0  0  0  0  0
    3.0988   -3.9645    3.1338 H   0  0  0  0  0  0  0  0  0  0  0  0
    1.7138   -5.4696    3.4154 C   0  0  0  0  0  0  0  0  0  0  0  0
    2.1911   -6.2804    3.7816 H   0  0  0  0  0  0  0  0  0  0  0  0
    1.3480   -4.9448    4.1976 H   0  0  0  0  0  0  0  0  0  0  0  0
    0.5704   -5.9095    2.5068 C   0  0  0  0  0  0  0  0  0  0  0  0
    0.7566   -6.8045    2.1041 H   0  0  0  0  0  0  0  0  0  0  0  0
   -0.2947   -5.9409    3.0076 H   0  0  0  0  0  0  0  0  0  0  0  0
  1  5  1  0
  5  6  2  0
  6  8  1  0
  8 10  2  0
 10 12  1  0
 12  5  1  0
  1  2  1  0
  1  3  1  0
  1  4  1  0
  6  7  1  0
  8  9  1  0
 10 11  1  0
 12 13  1  0
 14 18  1  0
 18 19  2  0
 18 20  1  0
 20 21  1  0
 21 24  1  0
 24 27  1  0
 27 30  1  0
 30 20  1  0
 14 15  1  0
 14 16  1  0
 14 17  1  0
 21 22  1  0
 21 23  1  0
 24 25  1  0
 24 26  1  0
 27 28  1  0
 27 29  1  0
 30 31  1  0
 30 32  1  0
M  CHG  1   8   1
M  END
>  <PDB_ID>  (24) 
pdb1xhn

>  <RESIDUE_NAME>  (24) 
HIP   PRO

>  <FRAG_NAME>  (24) 
MIMM   N1PA

>  <FRAG_ATOM_NUM>  (24) 
fragi: 13  fragj: 19

>  <atom.prop.CHAIN_ID>  (24) 
A A A A A A A A A A A A A Z Z Z Z Z Z Z Z Z Z Z Z Z Z Z Z Z Z Z

>  <atom.prop.IS_HEAVY_ATOM>  (24) 
1 0 0 0 1 1 0 1 0 1 0 1 0 1 0 0 0 1 1 1 1 0 0 1 0 0 1 0 0 1 0 0

>  <DIFUSE_FUNC_ATOM>  (24) 
n/a

>  <FINAL_SINGLE_POINT_ENERGY>  (24) 
0

>  <NONCOV_INTER_ENERGY_QM>  (24) 
0

>  <FF_Energy>  (24) 
-12.05

>  <QM_Energy>  (24) 
-17.46

>  <Index>  (24) 
401

$$$$
MIMM-pdb3cgh-A-HIP-284:N1PA-pdb3cgh-A-PRO-288
     RDKit          3D

 32 32  0  0  0  0  0  0  0  0999 V2000
   -0.6857    2.7448    0.0222 C   0  0  0  0  0  0  0  0  0  0  0  0
   -0.1877    3.2278    0.7540 H   0  0  0  0  0  0  0  0  0  0  0  0
   -1.6647    2.7339    0.2637 H   0  0  0  0  0  0  0  0  0  0  0  0
   -0.5571    3.2888   -0.9135 H   0  0  0  0  0  0  0  0  0  0  0  0
   -0.1994    1.3226   -0.0137 C   0  0  0  0  0  0  0  0  0  0  0  0
    1.0551    0.8042   -0.0000 C   0  0  0  0  0  0  0  0  0  0  0  0
    1.9069    1.3173    0.0068 H   0  0  0  0  0  0  0  0  0  0  0  0
    0.9288   -0.5671    0.0043 N   0  0  0  0  0  4  0  0  0  0  0  0
    1.6872   -1.2202    0.0059 H   0  0  0  0  0  0  0  0  0  0  0  0
   -0.3546   -0.8772    0.0050 C   0  0  0  0  0  0  0  0  0  0  0  0
   -0.7294   -1.8007    0.0093 H   0  0  0  0  0  0  0  0  0  0  0  0
   -1.0551    0.2410   -0.0000 N   0  0  0  0  0  0  0  0  0  0  0  0
   -2.0545    0.2997    0.0042 H   0  0  0  0  0  0  0  0  0  0  0  0
   -5.3071    0.2274   -1.1194 C   0  0  0  0  0  0  0  0  0  0  0  0
   -6.2883    0.0623   -0.9733 H   0  0  0  0  0  0  0  0  0  0  0  0
   -5.2004    1.1653   -1.6645 H   0  0  0  0  0  0  0  0  0  0  0  0
   -4.7868   -0.5674   -1.6539 H   0  0  0  0  0  0  0  0  0  0  0  0
   -4.6341    0.3077    0.2550 C   0  0  0  0  0  0  0  0  0  0  0  0
   -3.5071    0.7757    0.3349 O   0  0  0  0  0  0  0  0  0  0  0  0
   -5.2693   -0.2048    1.3233 N   0  0  0  0  0  0  0  0  0  0  0  0
   -4.5628   -0.1026    2.5903 C   0  0  0  0  0  0  0  0  0  0  0  0
   -4.3795    0.8689    2.8205 H   0  0  0  0  0  0  0  0  0  0  0  0
   -3.6395   -0.6818    2.5956 H   0  0  0  0  0  0  0  0  0  0  0  0
   -5.5369   -0.7360    3.5990 C   0  0  0  0  0  0  0  0  0  0  0  0
   -5.2976   -1.6974    3.7594 H   0  0  0  0  0  0  0  0  0  0  0  0
   -5.5045   -0.2435    4.4718 H   0  0  0  0  0  0  0  0  0  0  0  0
   -6.8746   -0.6136    2.9588 C   0  0  0  0  0  0  0  0  0  0  0  0
   -7.4849   -1.3565    3.2716 H   0  0  0  0  0  0  0  0  0  0  0  0
   -7.3053    0.2655    3.2093 H   0  0  0  0  0  0  0  0  0  0  0  0
   -6.6418   -0.6965    1.4875 C   0  0  0  0  0  0  0  0  0  0  0  0
   -6.7193   -1.6397    1.1527 H   0  0  0  0  0  0  0  0  0  0  0  0
   -7.2860   -0.1189    0.9760 H   0  0  0  0  0  0  0  0  0  0  0  0
  1  5  1  0
  5  6  2  0
  6  8  1  0
  8 10  2  0
 10 12  1  0
 12  5  1  0
  1  2  1  0
  1  3  1  0
  1  4  1  0
  6  7  1  0
  8  9  1  0
 10 11  1  0
 12 13  1  0
 14 18  1  0
 18 19  2  0
 18 20  1  0
 20 21  1  0
 21 24  1  0
 24 27  1  0
 27 30  1  0
 30 20  1  0
 14 15  1  0
 14 16  1  0
 14 17  1  0
 21 22  1  0
 21 23  1  0
 24 25  1  0
 24 26  1  0
 27 28  1  0
 27 29  1  0
 30 31  1  0
 30 32  1  0
M  CHG  1   8   1
M  END
>  <PDB_ID>  (25) 
pdb3cgh

>  <RESIDUE_NAME>  (25) 
HIP   PRO

>  <FRAG_NAME>  (25) 
MIMM   N1PA

>  <FRAG_ATOM_NUM>  (25) 
fragi: 13  fragj: 19

>  <atom.prop.CHAIN_ID>  (25) 
A A A A A A A A A A A A A Z Z Z Z Z Z Z Z Z Z Z Z Z Z Z Z Z Z Z

>  <atom.prop.IS_HEAVY_ATOM>  (25) 
1 0 0 0 1 1 0 1 0 1 0 1 0 1 0 0 0 1 1 1 1 0 0 1 0 0 1 0 0 1 0 0

>  <DIFUSE_FUNC_ATOM>  (25) 
n/a

>  <FINAL_SINGLE_POINT_ENERGY>  (25) 
0

>  <NONCOV_INTER_ENERGY_QM>  (25) 
0

>  <FF_Energy>  (25) 
-16.19

>  <QM_Energy>  (25) 
-25.23

>  <Index>  (25) 
414

$$$$
MIMM-pdb1yqz-B-HIP-358:N1PA-pdb1yqz-B-PRO-422
     RDKit          3D

 32 32  0  0  0  0  0  0  0  0999 V2000
   -0.6718    2.7367   -0.0026 C   0  0  0  0  0  0  0  0  0  0  0  0
   -0.3411    3.1848    0.8372 H   0  0  0  0  0  0  0  0  0  0  0  0
   -1.6800    2.7328    0.0185 H   0  0  0  0  0  0  0  0  0  0  0  0
   -0.3426    3.3185   -0.8636 H   0  0  0  0  0  0  0  0  0  0  0  0
   -0.1947    1.3194   -0.0002 C   0  0  0  0  0  0  0  0  0  0  0  0
    1.0563    0.8017    0.0000 C   0  0  0  0  0  0  0  0  0  0  0  0
    1.9100    1.3142    0.0015 H   0  0  0  0  0  0  0  0  0  0  0  0
    0.9269   -0.5655   -0.0004 N   0  0  0  0  0  4  0  0  0  0  0  0
    1.6844   -1.2223   -0.0014 H   0  0  0  0  0  0  0  0  0  0  0  0
   -0.3574   -0.8773   -0.0005 C   0  0  0  0  0  0  0  0  0  0  0  0
   -0.7322   -1.7995    0.0006 H   0  0  0  0  0  0  0  0  0  0  0  0
   -1.0563    0.2439   -0.0000 N   0  0  0  0  0  0  0  0  0  0  0  0
   -2.0547    0.3058   -0.0002 H   0  0  0  0  0  0  0  0  0  0  0  0
    1.6600    5.2909    4.2504 C   0  0  0  0  0  0  0  0  0  0  0  0
    2.1718    5.7184    3.4356 H   0  0  0  0  0  0  0  0  0  0  0  0
    1.2833    6.0867    4.8929 H   0  0  0  0  0  0  0  0  0  0  0  0
    2.5053    4.9008    4.8175 H   0  0  0  0  0  0  0  0  0  0  0  0
    0.7283    4.1879    3.7399 C   0  0  0  0  0  0  0  0  0  0  0  0
    0.8109    3.8265    2.5748 O   0  0  0  0  0  0  0  0  0  0  0  0
   -0.1629    3.6512    4.5823 N   0  0  0  0  0  0  0  0  0  0  0  0
   -1.0616    2.5805    4.1087 C   0  0  0  0  0  0  0  0  0  0  0  0
   -0.5075    1.8095    3.7142 H   0  0  0  0  0  0  0  0  0  0  0  0
   -1.8375    2.8844    3.4061 H   0  0  0  0  0  0  0  0  0  0  0  0
   -1.7253    2.0828    5.3919 C   0  0  0  0  0  0  0  0  0  0  0  0
   -2.6319    2.4875    5.5109 H   0  0  0  0  0  0  0  0  0  0  0  0
   -1.8012    1.0864    5.3980 H   0  0  0  0  0  0  0  0  0  0  0  0
   -0.7947    2.5446    6.5087 C   0  0  0  0  0  0  0  0  0  0  0  0
   -1.2980    2.6167    7.3594 H   0  0  0  0  0  0  0  0  0  0  0  0
   -0.0372    1.9118    6.5983 H   0  0  0  0  0  0  0  0  0  0  0  0
   -0.3351    3.8918    6.0236 C   0  0  0  0  0  0  0  0  0  0  0  0
   -1.0235    4.5921    6.1832 H   0  0  0  0  0  0  0  0  0  0  0  0
    0.5284    4.1558    6.4422 H   0  0  0  0  0  0  0  0  0  0  0  0
  1  5  1  0
  5  6  2  0
  6  8  1  0
  8 10  2  0
 10 12  1  0
 12  5  1  0
  1  2  1  0
  1  3  1  0
  1  4  1  0
  6  7  1  0
  8  9  1  0
 10 11  1  0
 12 13  1  0
 14 18  1  0
 18 19  2  0
 18 20  1  0
 20 21  1  0
 21 24  1  0
 24 27  1  0
 27 30  1  0
 30 20  1  0
 14 15  1  0
 14 16  1  0
 14 17  1  0
 21 22  1  0
 21 23  1  0
 24 25  1  0
 24 26  1  0
 27 28  1  0
 27 29  1  0
 30 31  1  0
 30 32  1  0
M  CHG  1   8   1
M  END
>  <PDB_ID>  (26) 
pdb1yqz

>  <RESIDUE_NAME>  (26) 
HIP   PRO

>  <FRAG_NAME>  (26) 
MIMM   N1PA

>  <FRAG_ATOM_NUM>  (26) 
fragi: 13  fragj: 19

>  <atom.prop.CHAIN_ID>  (26) 
A A A A A A A A A A A A A Z Z Z Z Z Z Z Z Z Z Z Z Z Z Z Z Z Z Z

>  <atom.prop.IS_HEAVY_ATOM>  (26) 
1 0 0 0 1 1 0 1 0 1 0 1 0 1 0 0 0 1 1 1 1 0 0 1 0 0 1 0 0 1 0 0

>  <DIFUSE_FUNC_ATOM>  (26) 
n/a

>  <FINAL_SINGLE_POINT_ENERGY>  (26) 
0

>  <NONCOV_INTER_ENERGY_QM>  (26) 
0

>  <FF_Energy>  (26) 
-6.55

>  <QM_Energy>  (26) 
-11.78

>  <Index>  (26) 
421

$$$$
MIMM-pdb1yi8-A-HIP-246:N1PA-pdb1yi8-A-PRO-252
     RDKit          3D

 32 32  0  0  0  0  0  0  0  0999 V2000
   -0.6736    2.7430    0.0027 C   0  0  0  0  0  0  0  0  0  0  0  0
   -0.8095    3.0264    0.9563 H   0  0  0  0  0  0  0  0  0  0  0  0
   -1.5555    2.7824   -0.4760 H   0  0  0  0  0  0  0  0  0  0  0  0
    0.0187    3.4354   -0.4764 H   0  0  0  0  0  0  0  0  0  0  0  0
   -0.1956    1.3206   -0.0040 C   0  0  0  0  0  0  0  0  0  0  0  0
    1.0555    0.8012    0.0000 C   0  0  0  0  0  0  0  0  0  0  0  0
    1.9101    1.3139    0.0009 H   0  0  0  0  0  0  0  0  0  0  0  0
    0.9272   -0.5662    0.0040 N   0  0  0  0  0  4  0  0  0  0  0  0
    1.6847   -1.2216    0.0077 H   0  0  0  0  0  0  0  0  0  0  0  0
   -0.3564   -0.8777    0.0006 C   0  0  0  0  0  0  0  0  0  0  0  0
   -0.7316   -1.7991    0.0000 H   0  0  0  0  0  0  0  0  0  0  0  0
   -1.0555    0.2435   -0.0000 N   0  0  0  0  0  0  0  0  0  0  0  0
   -2.0541    0.3038    0.0012 H   0  0  0  0  0  0  0  0  0  0  0  0
    4.5972   -0.5485   -1.3934 C   0  0  0  0  0  0  0  0  0  0  0  0
    5.6160   -0.6493   -1.4173 H   0  0  0  0  0  0  0  0  0  0  0  0
    4.1976   -1.1551   -2.2061 H   0  0  0  0  0  0  0  0  0  0  0  0
    4.3536    0.5017   -1.5539 H   0  0  0  0  0  0  0  0  0  0  0  0
    4.1482   -0.9547    0.0042 C   0  0  0  0  0  0  0  0  0  0  0  0
    3.0530   -1.4995    0.1891 O   0  0  0  0  0  0  0  0  0  0  0  0
    4.9866   -0.7232    0.9988 N   0  0  0  0  0  0  0  0  0  0  0  0
    4.6806   -1.0530    2.3897 C   0  0  0  0  0  0  0  0  0  0  0  0
    4.3365   -1.9882    2.4708 H   0  0  0  0  0  0  0  0  0  0  0  0
    3.9555   -0.3390    2.7801 H   0  0  0  0  0  0  0  0  0  0  0  0
    6.0254   -0.9604    3.0921 C   0  0  0  0  0  0  0  0  0  0  0  0
    5.9154   -0.6945    4.0452 H   0  0  0  0  0  0  0  0  0  0  0  0
    6.5240   -1.8190    3.0300 H   0  0  0  0  0  0  0  0  0  0  0  0
    6.7239    0.1183    2.3161 C   0  0  0  0  0  0  0  0  0  0  0  0
    6.3553    1.0083    2.5476 H   0  0  0  0  0  0  0  0  0  0  0  0
    7.7010    0.0865    2.4787 H   0  0  0  0  0  0  0  0  0  0  0  0
    6.3961   -0.2525    0.8949 C   0  0  0  0  0  0  0  0  0  0  0  0
    6.4517    0.5331    0.2861 H   0  0  0  0  0  0  0  0  0  0  0  0
    6.9799   -0.9872    0.5604 H   0  0  0  0  0  0  0  0  0  0  0  0
  1  5  1  0
  5  6  2  0
  6  8  1  0
  8 10  2  0
 10 12  1  0
 12  5  1  0
  1  2  1  0
  1  3  1  0
  1  4  1  0
  6  7  1  0
  8  9  1  0
 10 11  1  0
 12 13  1  0
 14 18  1  0
 18 19  2  0
 18 20  1  0
 20 21  1  0
 21 24  1  0
 24 27  1  0
 27 30  1  0
 30 20  1  0
 14 15  1  0
 14 16  1  0
 14 17  1  0
 21 22  1  0
 21 23  1  0
 24 25  1  0
 24 26  1  0
 27 28  1  0
 27 29  1  0
 30 31  1  0
 30 32  1  0
M  CHG  1   8   1
M  END
>  <PDB_ID>  (27) 
pdb1yi8

>  <RESIDUE_NAME>  (27) 
HIP   PRO

>  <FRAG_NAME>  (27) 
MIMM   N1PA

>  <FRAG_ATOM_NUM>  (27) 
fragi: 13  fragj: 19

>  <atom.prop.CHAIN_ID>  (27) 
A A A A A A A A A A A A A Z Z Z Z Z Z Z Z Z Z Z Z Z Z Z Z Z Z Z

>  <atom.prop.IS_HEAVY_ATOM>  (27) 
1 0 0 0 1 1 0 1 0 1 0 1 0 1 0 0 0 1 1 1 1 0 0 1 0 0 1 0 0 1 0 0

>  <DIFUSE_FUNC_ATOM>  (27) 
n/a

>  <FINAL_SINGLE_POINT_ENERGY>  (27) 
0

>  <NONCOV_INTER_ENERGY_QM>  (27) 
0

>  <FF_Energy>  (27) 
6.63

>  <QM_Energy>  (27) 
-19.68

>  <Index>  (27) 
425

$$$$
MIMM-pdb3dty-A-HIP-97:N1PA-pdb3dty-A-PRO-93
     RDKit          3D

 32 32  0  0  0  0  0  0  0  0999 V2000
   -0.6667    2.7423   -0.0014 C   0  0  0  0  0  0  0  0  0  0  0  0
   -1.2091    2.8941    0.8316 H   0  0  0  0  0  0  0  0  0  0  0  0
   -1.2626    2.8751   -0.8001 H   0  0  0  0  0  0  0  0  0  0  0  0
    0.1440    3.4699   -0.0377 H   0  0  0  0  0  0  0  0  0  0  0  0
   -0.1934    1.3215   -0.0006 C   0  0  0  0  0  0  0  0  0  0  0  0
    1.0568    0.7982    0.0000 C   0  0  0  0  0  0  0  0  0  0  0  0
    1.9121    1.3115    0.0017 H   0  0  0  0  0  0  0  0  0  0  0  0
    0.9280   -0.5680   -0.0012 N   0  0  0  0  0  4  0  0  0  0  0  0
    1.6831   -1.2259   -0.0032 H   0  0  0  0  0  0  0  0  0  0  0  0
   -0.3585   -0.8759   -0.0002 C   0  0  0  0  0  0  0  0  0  0  0  0
   -0.7346   -1.7975    0.0018 H   0  0  0  0  0  0  0  0  0  0  0  0
   -1.0568    0.2458   -0.0000 N   0  0  0  0  0  0  0  0  0  0  0  0
   -2.0543    0.3082   -0.0003 H   0  0  0  0  0  0  0  0  0  0  0  0
    5.5802   -1.1341   -0.1696 C   0  0  0  0  0  0  0  0  0  0  0  0
    6.3039   -1.8060   -0.0284 H   0  0  0  0  0  0  0  0  0  0  0  0
    5.1292   -1.2979   -1.1483 H   0  0  0  0  0  0  0  0  0  0  0  0
    5.9674   -0.1175   -0.1007 H   0  0  0  0  0  0  0  0  0  0  0  0
    4.5101   -1.3524    0.9036 C   0  0  0  0  0  0  0  0  0  0  0  0
    3.3351   -1.5655    0.5913 O   0  0  0  0  0  0  0  0  0  0  0  0
    4.9035   -1.3232    2.1867 N   0  0  0  0  0  0  0  0  0  0  0  0
    3.9265   -1.5215    3.2626 C   0  0  0  0  0  0  0  0  0  0  0  0
    3.5986   -2.4860    3.2746 H   0  0  0  0  0  0  0  0  0  0  0  0
    3.0785   -0.8379    3.2227 H   0  0  0  0  0  0  0  0  0  0  0  0
    4.7702   -1.3719    4.5316 C   0  0  0  0  0  0  0  0  0  0  0  0
    4.2827   -0.8449    5.2266 H   0  0  0  0  0  0  0  0  0  0  0  0
    5.0228   -2.2634    4.9025 H   0  0  0  0  0  0  0  0  0  0  0  0
    6.0075   -0.6207    4.0713 C   0  0  0  0  0  0  0  0  0  0  0  0
    5.8107    0.3510    4.0125 H   0  0  0  0  0  0  0  0  0  0  0  0
    6.7577   -0.7891    4.6993 H   0  0  0  0  0  0  0  0  0  0  0  0
    6.2667   -1.2152    2.7271 C   0  0  0  0  0  0  0  0  0  0  0  0
    6.8213   -0.6168    2.1581 H   0  0  0  0  0  0  0  0  0  0  0  0
    6.6886   -2.1145    2.7944 H   0  0  0  0  0  0  0  0  0  0  0  0
  1  5  1  0
  5  6  2  0
  6  8  1  0
  8 10  2  0
 10 12  1  0
 12  5  1  0
  1  2  1  0
  1  3  1  0
  1  4  1  0
  6  7  1  0
  8  9  1  0
 10 11  1  0
 12 13  1  0
 14 18  1  0
 18 19  2  0
 18 20  1  0
 20 21  1  0
 21 24  1  0
 24 27  1  0
 27 30  1  0
 30 20  1  0
 14 15  1  0
 14 16  1  0
 14 17  1  0
 21 22  1  0
 21 23  1  0
 24 25  1  0
 24 26  1  0
 27 28  1  0
 27 29  1  0
 30 31  1  0
 30 32  1  0
M  CHG  1   8   1
M  END
>  <PDB_ID>  (28) 
pdb3dty

>  <RESIDUE_NAME>  (28) 
HIP   PRO

>  <FRAG_NAME>  (28) 
MIMM   N1PA

>  <FRAG_ATOM_NUM>  (28) 
fragi: 13  fragj: 19

>  <atom.prop.CHAIN_ID>  (28) 
A A A A A A A A A A A A A Z Z Z Z Z Z Z Z Z Z Z Z Z Z Z Z Z Z Z

>  <atom.prop.IS_HEAVY_ATOM>  (28) 
1 0 0 0 1 1 0 1 0 1 0 1 0 1 0 0 0 1 1 1 1 0 0 1 0 0 1 0 0 1 0 0

>  <DIFUSE_FUNC_ATOM>  (28) 
n/a

>  <FINAL_SINGLE_POINT_ENERGY>  (28) 
0

>  <NONCOV_INTER_ENERGY_QM>  (28) 
0

>  <FF_Energy>  (28) 
-18.58

>  <QM_Energy>  (28) 
-24.23

>  <Index>  (28) 
438

$$$$
MIMM-pdb3dty-B-HIP-97:N1PA-pdb3dty-B-PRO-93
     RDKit          3D

 32 32  0  0  0  0  0  0  0  0999 V2000
   -0.6731    2.7383    0.0028 C   0  0  0  0  0  0  0  0  0  0  0  0
   -1.2228    2.8865    0.8319 H   0  0  0  0  0  0  0  0  0  0  0  0
   -1.2630    2.8744   -0.8002 H   0  0  0  0  0  0  0  0  0  0  0  0
    0.1331    3.4715   -0.0227 H   0  0  0  0  0  0  0  0  0  0  0  0
   -0.1948    1.3203    0.0014 C   0  0  0  0  0  0  0  0  0  0  0  0
    1.0559    0.8008    0.0000 C   0  0  0  0  0  0  0  0  0  0  0  0
    1.9108    1.3131   -0.0002 H   0  0  0  0  0  0  0  0  0  0  0  0
    0.9274   -0.5670   -0.0002 N   0  0  0  0  0  4  0  0  0  0  0  0
    1.6843   -1.2233   -0.0008 H   0  0  0  0  0  0  0  0  0  0  0  0
   -0.3568   -0.8764   -0.0011 C   0  0  0  0  0  0  0  0  0  0  0  0
   -0.7326   -1.7986   -0.0012 H   0  0  0  0  0  0  0  0  0  0  0  0
   -1.0559    0.2445    0.0000 N   0  0  0  0  0  0  0  0  0  0  0  0
   -2.0540    0.3054   -0.0009 H   0  0  0  0  0  0  0  0  0  0  0  0
    5.4121   -1.1415    0.0877 C   0  0  0  0  0  0  0  0  0  0  0  0
    6.1898   -1.7457    0.3013 H   0  0  0  0  0  0  0  0  0  0  0  0
    5.0314   -1.4019   -0.8999 H   0  0  0  0  0  0  0  0  0  0  0  0
    5.7064   -0.0920    0.0977 H   0  0  0  0  0  0  0  0  0  0  0  0
    4.3440   -1.3387    1.1672 C   0  0  0  0  0  0  0  0  0  0  0  0
    3.2163   -1.7263    0.8648 O   0  0  0  0  0  0  0  0  0  0  0  0
    4.6854   -1.0685    2.4432 N   0  0  0  0  0  0  0  0  0  0  0  0
    3.7206   -1.2235    3.5425 C   0  0  0  0  0  0  0  0  0  0  0  0
    3.4658   -2.1956    3.6582 H   0  0  0  0  0  0  0  0  0  0  0  0
    2.8302   -0.6105    3.4033 H   0  0  0  0  0  0  0  0  0  0  0  0
    4.5288   -0.8039    4.7695 C   0  0  0  0  0  0  0  0  0  0  0  0
    4.4941    0.1800    4.9009 H   0  0  0  0  0  0  0  0  0  0  0  0
    4.2142   -1.2762    5.5842 H   0  0  0  0  0  0  0  0  0  0  0  0
    5.9257   -1.2439    4.4040 C   0  0  0  0  0  0  0  0  0  0  0  0
    6.5915   -0.7933    4.9794 H   0  0  0  0  0  0  0  0  0  0  0  0
    6.0043   -2.2273    4.4634 H   0  0  0  0  0  0  0  0  0  0  0  0
    6.0321   -0.7735    2.9733 C   0  0  0  0  0  0  0  0  0  0  0  0
    6.2216    0.2024    2.9233 H   0  0  0  0  0  0  0  0  0  0  0  0
    6.7249   -1.2841    2.4723 H   0  0  0  0  0  0  0  0  0  0  0  0
  1  5  1  0
  5  6  2  0
  6  8  1  0
  8 10  2  0
 10 12  1  0
 12  5  1  0
  1  2  1  0
  1  3  1  0
  1  4  1  0
  6  7  1  0
  8  9  1  0
 10 11  1  0
 12 13  1  0
 14 18  1  0
 18 19  2  0
 18 20  1  0
 20 21  1  0
 21 24  1  0
 24 27  1  0
 27 30  1  0
 30 20  1  0
 14 15  1  0
 14 16  1  0
 14 17  1  0
 21 22  1  0
 21 23  1  0
 24 25  1  0
 24 26  1  0
 27 28  1  0
 27 29  1  0
 30 31  1  0
 30 32  1  0
M  CHG  1   8   1
M  END
>  <PDB_ID>  (29) 
pdb3dty

>  <RESIDUE_NAME>  (29) 
HIP   PRO

>  <FRAG_NAME>  (29) 
MIMM   N1PA

>  <FRAG_ATOM_NUM>  (29) 
fragi: 13  fragj: 19

>  <atom.prop.CHAIN_ID>  (29) 
A A A A A A A A A A A A A Z Z Z Z Z Z Z Z Z Z Z Z Z Z Z Z Z Z Z

>  <atom.prop.IS_HEAVY_ATOM>  (29) 
1 0 0 0 1 1 0 1 0 1 0 1 0 1 0 0 0 1 1 1 1 0 0 1 0 0 1 0 0 1 0 0

>  <DIFUSE_FUNC_ATOM>  (29) 
n/a

>  <FINAL_SINGLE_POINT_ENERGY>  (29) 
0

>  <NONCOV_INTER_ENERGY_QM>  (29) 
0

>  <FF_Energy>  (29) 
-17.98

>  <QM_Energy>  (29) 
-23.36

>  <Index>  (29) 
439

$$$$
MIMM-pdb3dty-E-HIP-97:N1PA-pdb3dty-E-PRO-93
     RDKit          3D

 32 32  0  0  0  0  0  0  0  0999 V2000
   -0.6709    2.7399    0.0133 C   0  0  0  0  0  0  0  0  0  0  0  0
   -1.2007    2.8891    0.8546 H   0  0  0  0  0  0  0  0  0  0  0  0
   -1.2788    2.8750   -0.7764 H   0  0  0  0  0  0  0  0  0  0  0  0
    0.1380    3.4689   -0.0319 H   0  0  0  0  0  0  0  0  0  0  0  0
   -0.1971    1.3180    0.0023 C   0  0  0  0  0  0  0  0  0  0  0  0
    1.0568    0.8021   -0.0000 C   0  0  0  0  0  0  0  0  0  0  0  0
    1.9085    1.3160    0.0002 H   0  0  0  0  0  0  0  0  0  0  0  0
    0.9274   -0.5652   -0.0020 N   0  0  0  0  0  4  0  0  0  0  0  0
    1.6862   -1.2213   -0.0047 H   0  0  0  0  0  0  0  0  0  0  0  0
   -0.3546   -0.8780   -0.0012 C   0  0  0  0  0  0  0  0  0  0  0  0
   -0.7303   -1.7996   -0.0003 H   0  0  0  0  0  0  0  0  0  0  0  0
   -1.0568    0.2447    0.0000 N   0  0  0  0  0  0  0  0  0  0  0  0
   -2.0548    0.3019   -0.0011 H   0  0  0  0  0  0  0  0  0  0  0  0
    5.5767   -1.0057   -0.3712 C   0  0  0  0  0  0  0  0  0  0  0  0
    6.3312   -1.6556   -0.2481 H   0  0  0  0  0  0  0  0  0  0  0  0
    5.1050   -1.1924   -1.3359 H   0  0  0  0  0  0  0  0  0  0  0  0
    5.9586    0.0146   -0.3337 H   0  0  0  0  0  0  0  0  0  0  0  0
    4.5677   -1.2295    0.7648 C   0  0  0  0  0  0  0  0  0  0  0  0
    3.3819   -1.4443    0.5147 O   0  0  0  0  0  0  0  0  0  0  0  0
    5.0285   -1.1924    2.0272 N   0  0  0  0  0  0  0  0  0  0  0  0
    4.1241   -1.3967    3.1661 C   0  0  0  0  0  0  0  0  0  0  0  0
    3.8709   -2.3738    3.2490 H   0  0  0  0  0  0  0  0  0  0  0  0
    3.2296   -0.7764    3.1103 H   0  0  0  0  0  0  0  0  0  0  0  0
    5.0052   -1.0523    4.3648 C   0  0  0  0  0  0  0  0  0  0  0  0
    5.0092   -0.0730    4.5355 H   0  0  0  0  0  0  0  0  0  0  0  0
    4.7151   -1.5454    5.1763 H   0  0  0  0  0  0  0  0  0  0  0  0
    6.3662   -1.5194    3.9145 C   0  0  0  0  0  0  0  0  0  0  0  0
    7.0758   -1.1052    4.4646 H   0  0  0  0  0  0  0  0  0  0  0  0
    6.4202   -2.5061    3.9408 H   0  0  0  0  0  0  0  0  0  0  0  0
    6.4191   -1.0098    2.4869 C   0  0  0  0  0  0  0  0  0  0  0  0
    6.6770   -0.0488    2.4559 H   0  0  0  0  0  0  0  0  0  0  0  0
    7.0473   -1.5504    1.9337 H   0  0  0  0  0  0  0  0  0  0  0  0
  1  5  1  0
  5  6  2  0
  6  8  1  0
  8 10  2  0
 10 12  1  0
 12  5  1  0
  1  2  1  0
  1  3  1  0
  1  4  1  0
  6  7  1  0
  8  9  1  0
 10 11  1  0
 12 13  1  0
 14 18  1  0
 18 19  2  0
 18 20  1  0
 20 21  1  0
 21 24  1  0
 24 27  1  0
 27 30  1  0
 30 20  1  0
 14 15  1  0
 14 16  1  0
 14 17  1  0
 21 22  1  0
 21 23  1  0
 24 25  1  0
 24 26  1  0
 27 28  1  0
 27 29  1  0
 30 31  1  0
 30 32  1  0
M  CHG  1   8   1
M  END
>  <PDB_ID>  (30) 
pdb3dty

>  <RESIDUE_NAME>  (30) 
HIP   PRO

>  <FRAG_NAME>  (30) 
MIMM   N1PA

>  <FRAG_ATOM_NUM>  (30) 
fragi: 13  fragj: 19

>  <atom.prop.CHAIN_ID>  (30) 
A A A A A A A A A A A A A Z Z Z Z Z Z Z Z Z Z Z Z Z Z Z Z Z Z Z

>  <atom.prop.IS_HEAVY_ATOM>  (30) 
1 0 0 0 1 1 0 1 0 1 0 1 0 1 0 0 0 1 1 1 1 0 0 1 0 0 1 0 0 1 0 0

>  <DIFUSE_FUNC_ATOM>  (30) 
n/a

>  <FINAL_SINGLE_POINT_ENERGY>  (30) 
0

>  <NONCOV_INTER_ENERGY_QM>  (30) 
0

>  <FF_Energy>  (30) 
-18.48

>  <QM_Energy>  (30) 
-24.35

>  <Index>  (30) 
441

$$$$
MIMM-pdb3eo4-D-HIP-466:N1PA-pdb3eo4-D-PRO-429
     RDKit          3D

 32 32  0  0  0  0  0  0  0  0999 V2000
   -0.6723    2.7429    0.0075 C   0  0  0  0  0  0  0  0  0  0  0  0
   -1.5573    2.7821   -0.4670 H   0  0  0  0  0  0  0  0  0  0  0  0
   -0.0094    3.3008   -0.5015 H   0  0  0  0  0  0  0  0  0  0  0  0
   -0.7931    3.1718    1.0023 H   0  0  0  0  0  0  0  0  0  0  0  0
   -0.1955    1.3209    0.0116 C   0  0  0  0  0  0  0  0  0  0  0  0
    1.0559    0.8023   -0.0000 C   0  0  0  0  0  0  0  0  0  0  0  0
    1.9095    1.3143   -0.0004 H   0  0  0  0  0  0  0  0  0  0  0  0
    0.9274   -0.5661   -0.0086 N   0  0  0  0  0  4  0  0  0  0  0  0
    1.6847   -1.2212   -0.0184 H   0  0  0  0  0  0  0  0  0  0  0  0
   -0.3571   -0.8773   -0.0044 C   0  0  0  0  0  0  0  0  0  0  0  0
   -0.7318   -1.7999   -0.0030 H   0  0  0  0  0  0  0  0  0  0  0  0
   -1.0559    0.2429   -0.0000 N   0  0  0  0  0  0  0  0  0  0  0  0
   -2.0544    0.3042   -0.0040 H   0  0  0  0  0  0  0  0  0  0  0  0
    5.3319    2.7619   -0.4250 C   0  0  0  0  0  0  0  0  0  0  0  0
    5.4087    3.6779   -0.0258 H   0  0  0  0  0  0  0  0  0  0  0  0
    6.3387    2.4241   -0.6707 H   0  0  0  0  0  0  0  0  0  0  0  0
    4.7427    2.7408   -1.3417 H   0  0  0  0  0  0  0  0  0  0  0  0
    4.7451    1.8598    0.6468 C   0  0  0  0  0  0  0  0  0  0  0  0
    3.9260    0.9861    0.3489 O   0  0  0  0  0  0  0  0  0  0  0  0
    5.1619    2.0550    1.9096 N   0  0  0  0  0  0  0  0  0  0  0  0
    4.7499    1.1019    2.9372 C   0  0  0  0  0  0  0  0  0  0  0  0
    5.1543    0.1871    2.7566 H   0  0  0  0  0  0  0  0  0  0  0  0
    3.6669    1.0306    3.0375 H   0  0  0  0  0  0  0  0  0  0  0  0
    5.3427    1.6861    4.2120 C   0  0  0  0  0  0  0  0  0  0  0  0
    4.6847    2.2885    4.6678 H   0  0  0  0  0  0  0  0  0  0  0  0
    5.6166    0.9594    4.8432 H   0  0  0  0  0  0  0  0  0  0  0  0
    6.5263    2.4533    3.7330 C   0  0  0  0  0  0  0  0  0  0  0  0
    6.7794    3.1625    4.3995 H   0  0  0  0  0  0  0  0  0  0  0  0
    7.3136    1.8412    3.6034 H   0  0  0  0  0  0  0  0  0  0  0  0
    6.0984    3.0604    2.4374 C   0  0  0  0  0  0  0  0  0  0  0  0
    5.6336    3.9332    2.5728 H   0  0  0  0  0  0  0  0  0  0  0  0
    6.8684    3.1823    1.8122 H   0  0  0  0  0  0  0  0  0  0  0  0
  1  5  1  0
  5  6  2  0
  6  8  1  0
  8 10  2  0
 10 12  1  0
 12  5  1  0
  1  2  1  0
  1  3  1  0
  1  4  1  0
  6  7  1  0
  8  9  1  0
 10 11  1  0
 12 13  1  0
 14 18  1  0
 18 19  2  0
 18 20  1  0
 20 21  1  0
 21 24  1  0
 24 27  1  0
 27 30  1  0
 30 20  1  0
 14 15  1  0
 14 16  1  0
 14 17  1  0
 21 22  1  0
 21 23  1  0
 24 25  1  0
 24 26  1  0
 27 28  1  0
 27 29  1  0
 30 31  1  0
 30 32  1  0
M  CHG  1   8   1
M  END
>  <PDB_ID>  (31) 
pdb3eo4

>  <RESIDUE_NAME>  (31) 
HIP   PRO

>  <FRAG_NAME>  (31) 
MIMM   N1PA

>  <FRAG_ATOM_NUM>  (31) 
fragi: 13  fragj: 19

>  <atom.prop.CHAIN_ID>  (31) 
A A A A A A A A A A A A A Z Z Z Z Z Z Z Z Z Z Z Z Z Z Z Z Z Z Z

>  <atom.prop.IS_HEAVY_ATOM>  (31) 
1 0 0 0 1 1 0 1 0 1 0 1 0 1 0 0 0 1 1 1 1 0 0 1 0 0 1 0 0 1 0 0

>  <DIFUSE_FUNC_ATOM>  (31) 
n/a

>  <FINAL_SINGLE_POINT_ENERGY>  (31) 
0

>  <NONCOV_INTER_ENERGY_QM>  (31) 
0

>  <FF_Energy>  (31) 
-9.47

>  <QM_Energy>  (31) 
-16.55

>  <Index>  (31) 
453

$$$$
MIMM-pdb3f7o-A-HIP-72:N1PA-pdb3f7o-X-PRO-4
     RDKit          3D

 32 32  0  0  0  0  0  0  0  0999 V2000
   -0.6830    2.7372   -0.0040 C   0  0  0  0  0  0  0  0  0  0  0  0
   -0.1030    3.2652    0.6270 H   0  0  0  0  0  0  0  0  0  0  0  0
   -1.6270    2.7484    0.3455 H   0  0  0  0  0  0  0  0  0  0  0  0
   -0.6602    3.2056   -0.9879 H   0  0  0  0  0  0  0  0  0  0  0  0
   -0.2016    1.3126    0.0019 C   0  0  0  0  0  0  0  0  0  0  0  0
    1.0546    0.8116    0.0000 C   0  0  0  0  0  0  0  0  0  0  0  0
    1.9026    1.3225    0.0003 H   0  0  0  0  0  0  0  0  0  0  0  0
    0.9261   -0.5642   -0.0012 N   0  0  0  0  0  4  0  0  0  0  0  0
    1.6939   -1.2122   -0.0027 H   0  0  0  0  0  0  0  0  0  0  0  0
   -0.3471   -0.8823   -0.0010 C   0  0  0  0  0  0  0  0  0  0  0  0
   -0.7245   -1.8021   -0.0007 H   0  0  0  0  0  0  0  0  0  0  0  0
   -1.0546    0.2422    0.0000 N   0  0  0  0  0  0  0  0  0  0  0  0
   -2.0531    0.2914   -0.0011 H   0  0  0  0  0  0  0  0  0  0  0  0
   -0.3772   -1.4392    7.4073 C   0  0  0  0  0  0  0  0  0  0  0  0
   -0.8256   -0.5803    7.5566 H   0  0  0  0  0  0  0  0  0  0  0  0
   -0.9484   -2.2387    7.8792 H   0  0  0  0  0  0  0  0  0  0  0  0
    0.6588   -1.4557    7.7456 H   0  0  0  0  0  0  0  0  0  0  0  0
   -0.4663   -1.7936    5.9500 C   0  0  0  0  0  0  0  0  0  0  0  0
   -0.7924   -2.9307    5.6050 O   0  0  0  0  0  0  0  0  0  0  0  0
   -0.2576   -0.8076    5.0766 N   0  0  0  0  0  0  0  0  0  0  0  0
   -0.3145   -1.0901    3.6423 C   0  0  0  0  0  0  0  0  0  0  0  0
   -1.1066   -1.6312    3.4108 H   0  0  0  0  0  0  0  0  0  0  0  0
    0.6047   -1.6192    3.3910 H   0  0  0  0  0  0  0  0  0  0  0  0
   -0.4139    0.3067    3.0268 C   0  0  0  0  0  0  0  0  0  0  0  0
    0.0668    0.3544    2.1586 H   0  0  0  0  0  0  0  0  0  0  0  0
   -1.3593    0.5877    2.9182 H   0  0  0  0  0  0  0  0  0  0  0  0
    0.2832    1.1933    4.0629 C   0  0  0  0  0  0  0  0  0  0  0  0
    1.2573    1.0645    4.0091 H   0  0  0  0  0  0  0  0  0  0  0  0
    0.0246    2.1322    3.9244 H   0  0  0  0  0  0  0  0  0  0  0  0
   -0.2834    0.6408    5.3367 C   0  0  0  0  0  0  0  0  0  0  0  0
    0.2869    0.8657    6.1206 H   0  0  0  0  0  0  0  0  0  0  0  0
   -1.2171    0.9531    5.4907 H   0  0  0  0  0  0  0  0  0  0  0  0
  1  5  1  0
  5  6  2  0
  6  8  1  0
  8 10  2  0
 10 12  1  0
 12  5  1  0
  1  2  1  0
  1  3  1  0
  1  4  1  0
  6  7  1  0
  8  9  1  0
 10 11  1  0
 12 13  1  0
 14 18  1  0
 18 19  2  0
 18 20  1  0
 20 21  1  0
 21 24  1  0
 24 27  1  0
 27 30  1  0
 30 20  1  0
 14 15  1  0
 14 16  1  0
 14 17  1  0
 21 22  1  0
 21 23  1  0
 24 25  1  0
 24 26  1  0
 27 28  1  0
 27 29  1  0
 30 31  1  0
 30 32  1  0
M  CHG  1   8   1
M  END
>  <PDB_ID>  (32) 
pdb3f7o

>  <RESIDUE_NAME>  (32) 
HIP   PRO

>  <FRAG_NAME>  (32) 
MIMM   N1PA

>  <FRAG_ATOM_NUM>  (32) 
fragi: 13  fragj: 19

>  <atom.prop.CHAIN_ID>  (32) 
A A A A A A A A A A A A A Z Z Z Z Z Z Z Z Z Z Z Z Z Z Z Z Z Z Z

>  <atom.prop.IS_HEAVY_ATOM>  (32) 
1 0 0 0 1 1 0 1 0 1 0 1 0 1 0 0 0 1 1 1 1 0 0 1 0 0 1 0 0 1 0 0

>  <DIFUSE_FUNC_ATOM>  (32) 
n/a

>  <FINAL_SINGLE_POINT_ENERGY>  (32) 
0

>  <NONCOV_INTER_ENERGY_QM>  (32) 
0

>  <FF_Energy>  (32) 
7.89

>  <QM_Energy>  (32) 
1.14

>  <Index>  (32) 
455

$$$$
MIMM-pdb3f7o-B-HIP-72:N1PA-pdb3f7o-Y-PRO-4
     RDKit          3D

 32 32  0  0  0  0  0  0  0  0999 V2000
   -0.6711    2.7381    0.0044 C   0  0  0  0  0  0  0  0  0  0  0  0
   -0.1361    3.2517    0.6859 H   0  0  0  0  0  0  0  0  0  0  0  0
   -1.6374    2.7477    0.2881 H   0  0  0  0  0  0  0  0  0  0  0  0
   -0.5823    3.2350   -0.9618 H   0  0  0  0  0  0  0  0  0  0  0  0
   -0.1958    1.3229    0.0006 C   0  0  0  0  0  0  0  0  0  0  0  0
    1.0551    0.7986    0.0000 C   0  0  0  0  0  0  0  0  0  0  0  0
    1.9096    1.3139    0.0015 H   0  0  0  0  0  0  0  0  0  0  0  0
    0.9280   -0.5640   -0.0014 N   0  0  0  0  0  4  0  0  0  0  0  0
    1.6821   -1.2230   -0.0038 H   0  0  0  0  0  0  0  0  0  0  0  0
   -0.3601   -0.8754   -0.0004 C   0  0  0  0  0  0  0  0  0  0  0  0
   -0.7321   -1.7991    0.0007 H   0  0  0  0  0  0  0  0  0  0  0  0
   -1.0551    0.2416    0.0000 N   0  0  0  0  0  0  0  0  0  0  0  0
   -2.0555    0.3060   -0.0006 H   0  0  0  0  0  0  0  0  0  0  0  0
   -1.0480   -1.6034    7.4249 C   0  0  0  0  0  0  0  0  0  0  0  0
   -1.5752   -0.7788    7.5626 H   0  0  0  0  0  0  0  0  0  0  0  0
   -1.5959   -2.4522    7.8340 H   0  0  0  0  0  0  0  0  0  0  0  0
   -0.0529   -1.5435    7.8657 H   0  0  0  0  0  0  0  0  0  0  0  0
   -0.9393   -1.8801    5.9487 C   0  0  0  0  0  0  0  0  0  0  0  0
   -1.1846   -3.0024    5.5104 O   0  0  0  0  0  0  0  0  0  0  0  0
   -0.6249   -0.8543    5.1489 N   0  0  0  0  0  0  0  0  0  0  0  0
   -0.5108   -1.1651    3.7297 C   0  0  0  0  0  0  0  0  0  0  0  0
   -1.2290   -1.7876    3.4319 H   0  0  0  0  0  0  0  0  0  0  0  0
    0.4701   -1.6007    3.5395 H   0  0  0  0  0  0  0  0  0  0  0  0
   -0.7404    0.1955    3.0627 C   0  0  0  0  0  0  0  0  0  0  0  0
   -0.2430    0.2486    2.1974 H   0  0  0  0  0  0  0  0  0  0  0  0
   -1.7135    0.3453    2.8990 H   0  0  0  0  0  0  0  0  0  0  0  0
   -0.2038    1.1556    4.0552 C   0  0  0  0  0  0  0  0  0  0  0  0
    0.7869    1.1467    4.0653 H   0  0  0  0  0  0  0  0  0  0  0  0
   -0.5494    2.0693    3.8941 H   0  0  0  0  0  0  0  0  0  0  0  0
   -0.7558    0.5969    5.3492 C   0  0  0  0  0  0  0  0  0  0  0  0
   -0.2161    0.8964    6.1307 H   0  0  0  0  0  0  0  0  0  0  0  0
   -1.7110    0.8529    5.4751 H   0  0  0  0  0  0  0  0  0  0  0  0
  1  5  1  0
  5  6  2  0
  6  8  1  0
  8 10  2  0
 10 12  1  0
 12  5  1  0
  1  2  1  0
  1  3  1  0
  1  4  1  0
  6  7  1  0
  8  9  1  0
 10 11  1  0
 12 13  1  0
 14 18  1  0
 18 19  2  0
 18 20  1  0
 20 21  1  0
 21 24  1  0
 24 27  1  0
 27 30  1  0
 30 20  1  0
 14 15  1  0
 14 16  1  0
 14 17  1  0
 21 22  1  0
 21 23  1  0
 24 25  1  0
 24 26  1  0
 27 28  1  0
 27 29  1  0
 30 31  1  0
 30 32  1  0
M  CHG  1   8   1
M  END
>  <PDB_ID>  (33) 
pdb3f7o

>  <RESIDUE_NAME>  (33) 
HIP   PRO

>  <FRAG_NAME>  (33) 
MIMM   N1PA

>  <FRAG_ATOM_NUM>  (33) 
fragi: 13  fragj: 19

>  <atom.prop.CHAIN_ID>  (33) 
A A A A A A A A A A A A A Z Z Z Z Z Z Z Z Z Z Z Z Z Z Z Z Z Z Z

>  <atom.prop.IS_HEAVY_ATOM>  (33) 
1 0 0 0 1 1 0 1 0 1 0 1 0 1 0 0 0 1 1 1 1 0 0 1 0 0 1 0 0 1 0 0

>  <DIFUSE_FUNC_ATOM>  (33) 
n/a

>  <FINAL_SINGLE_POINT_ENERGY>  (33) 
0

>  <NONCOV_INTER_ENERGY_QM>  (33) 
0

>  <FF_Energy>  (33) 
6.58

>  <QM_Energy>  (33) 
0.65

>  <Index>  (33) 
456

$$$$
MIMM-pdb4b4n-A-HIP-120:N1PA-pdb4b4n-A-PRO-123
     RDKit          3D

 32 32  0  0  0  0  0  0  0  0999 V2000
   -0.6636    2.7373    0.0359 C   0  0  0  0  0  0  0  0  0  0  0  0
    0.0460    3.2910    0.5002 H   0  0  0  0  0  0  0  0  0  0  0  0
   -1.4978    2.7710    0.6093 H   0  0  0  0  0  0  0  0  0  0  0  0
   -0.8809    3.1779   -0.9370 H   0  0  0  0  0  0  0  0  0  0  0  0
   -0.1905    1.3214   -0.0083 C   0  0  0  0  0  0  0  0  0  0  0  0
    1.0599    0.8017    0.0000 C   0  0  0  0  0  0  0  0  0  0  0  0
    1.9148    1.3107   -0.0009 H   0  0  0  0  0  0  0  0  0  0  0  0
    0.9262   -0.5669    0.0104 N   0  0  0  0  0  4  0  0  0  0  0  0
    1.6812   -1.2251    0.0214 H   0  0  0  0  0  0  0  0  0  0  0  0
   -0.3618   -0.8781    0.0013 C   0  0  0  0  0  0  0  0  0  0  0  0
   -0.7357   -1.7998   -0.0021 H   0  0  0  0  0  0  0  0  0  0  0  0
   -1.0599    0.2436   -0.0000 N   0  0  0  0  0  0  0  0  0  0  0  0
   -2.0556    0.3096    0.0037 H   0  0  0  0  0  0  0  0  0  0  0  0
   -4.9565   -0.0257   -1.9911 C   0  0  0  0  0  0  0  0  0  0  0  0
   -5.2124    0.5114   -2.8121 H   0  0  0  0  0  0  0  0  0  0  0  0
   -4.1485   -0.7180   -2.2277 H   0  0  0  0  0  0  0  0  0  0  0  0
   -5.7792   -0.6890   -1.7242 H   0  0  0  0  0  0  0  0  0  0  0  0
   -4.6236    0.9062   -0.8210 C   0  0  0  0  0  0  0  0  0  0  0  0
   -3.6680    0.6192   -0.0795 O   0  0  0  0  0  0  0  0  0  0  0  0
   -5.3393    2.0571   -0.7281 N   0  0  0  0  0  0  0  0  0  0  0  0
   -4.9813    3.0092    0.3225 C   0  0  0  0  0  0  0  0  0  0  0  0
   -4.0754    3.4504    0.1022 H   0  0  0  0  0  0  0  0  0  0  0  0
   -4.9747    2.6170    1.3395 H   0  0  0  0  0  0  0  0  0  0  0  0
   -6.0481    4.1073    0.1950 C   0  0  0  0  0  0  0  0  0  0  0  0
   -6.8878    3.8472    0.6523 H   0  0  0  0  0  0  0  0  0  0  0  0
   -5.7133    4.9750    0.5342 H   0  0  0  0  0  0  0  0  0  0  0  0
   -6.2751    4.1847   -1.3213 C   0  0  0  0  0  0  0  0  0  0  0  0
   -7.1707    4.5561   -1.5135 H   0  0  0  0  0  0  0  0  0  0  0  0
   -5.5630    4.7239   -1.7448 H   0  0  0  0  0  0  0  0  0  0  0  0
   -6.1864    2.7144   -1.7737 C   0  0  0  0  0  0  0  0  0  0  0  0
   -7.0911    2.2961   -1.8015 H   0  0  0  0  0  0  0  0  0  0  0  0
   -5.7515    2.6435   -2.6686 H   0  0  0  0  0  0  0  0  0  0  0  0
  1  5  1  0
  5  6  2  0
  6  8  1  0
  8 10  2  0
 10 12  1  0
 12  5  1  0
  1  2  1  0
  1  3  1  0
  1  4  1  0
  6  7  1  0
  8  9  1  0
 10 11  1  0
 12 13  1  0
 14 18  1  0
 18 19  2  0
 18 20  1  0
 20 21  1  0
 21 24  1  0
 24 27  1  0
 27 30  1  0
 30 20  1  0
 14 15  1  0
 14 16  1  0
 14 17  1  0
 21 22  1  0
 21 23  1  0
 24 25  1  0
 24 26  1  0
 27 28  1  0
 27 29  1  0
 30 31  1  0
 30 32  1  0
M  CHG  1   8   1
M  END
>  <PDB_ID>  (34) 
pdb4b4n

>  <RESIDUE_NAME>  (34) 
HIP   PRO

>  <FRAG_NAME>  (34) 
MIMM   N1PA

>  <FRAG_ATOM_NUM>  (34) 
fragi: 13  fragj: 19

>  <atom.prop.CHAIN_ID>  (34) 
A A A A A A A A A A A A A Z Z Z Z Z Z Z Z Z Z Z Z Z Z Z Z Z Z Z

>  <atom.prop.IS_HEAVY_ATOM>  (34) 
1 0 0 0 1 1 0 1 0 1 0 1 0 1 0 0 0 1 1 1 1 0 0 1 0 0 1 0 0 1 0 0

>  <DIFUSE_FUNC_ATOM>  (34) 
n/a

>  <FINAL_SINGLE_POINT_ENERGY>  (34) 
0

>  <NONCOV_INTER_ENERGY_QM>  (34) 
0

>  <FF_Energy>  (34) 
-19.98

>  <QM_Energy>  (34) 
-26.19

>  <Index>  (34) 
460

$$$$
MIMM-pdb4b2n-A-HIP-517:N1PA-pdb4b2n-A-PRO-430
     RDKit          3D

 32 32  0  0  0  0  0  0  0  0999 V2000
   -0.5710    2.7775    0.0411 C   0  0  0  0  0  0  0  0  0  0  0  0
    0.1642    3.2969    0.4932 H   0  0  0  0  0  0  0  0  0  0  0  0
   -1.4027    2.8526    0.6037 H   0  0  0  0  0  0  0  0  0  0  0  0
   -0.7611    3.2008   -0.9452 H   0  0  0  0  0  0  0  0  0  0  0  0
   -0.1654    1.3357    0.0057 C   0  0  0  0  0  0  0  0  0  0  0  0
    1.0865    0.7648    0.0000 C   0  0  0  0  0  0  0  0  0  0  0  0
    1.9490    1.2738    0.0027 H   0  0  0  0  0  0  0  0  0  0  0  0
    0.9358   -0.5855   -0.0080 N   0  0  0  0  0  4  0  0  0  0  0  0
    1.6637   -1.2704   -0.0180 H   0  0  0  0  0  0  0  0  0  0  0  0
   -0.3876   -0.8875   -0.0016 C   0  0  0  0  0  0  0  0  0  0  0  0
   -0.7703   -1.7901    0.0023 H   0  0  0  0  0  0  0  0  0  0  0  0
   -1.0865    0.2751   -0.0000 N   0  0  0  0  0  0  0  0  0  0  0  0
   -2.0626    0.3583   -0.0029 H   0  0  0  0  0  0  0  0  0  0  0  0
    0.3793   -4.8426   -1.1169 C   0  0  0  0  0  0  0  0  0  0  0  0
    0.4540   -5.8270   -1.3109 H   0  0  0  0  0  0  0  0  0  0  0  0
   -0.6722   -4.5776   -1.2270 H   0  0  0  0  0  0  0  0  0  0  0  0
    1.0137   -4.2843   -1.8053 H   0  0  0  0  0  0  0  0  0  0  0  0
    0.8367   -4.6247    0.3068 C   0  0  0  0  0  0  0  0  0  0  0  0
    0.7348   -3.4912    0.8512 O   0  0  0  0  0  0  0  0  0  0  0  0
    1.3584   -5.6742    0.9188 N   0  0  0  0  0  0  0  0  0  0  0  0
    1.6742   -5.5383    2.3508 C   0  0  0  0  0  0  0  0  0  0  0  0
    0.9509   -4.9687    2.8118 H   0  0  0  0  0  0  0  0  0  0  0  0
    2.6682   -5.1573    2.5852 H   0  0  0  0  0  0  0  0  0  0  0  0
    1.6289   -6.9728    2.8451 C   0  0  0  0  0  0  0  0  0  0  0  0
    2.2391   -7.1080    3.6219 H   0  0  0  0  0  0  0  0  0  0  0  0
    0.7014   -7.2435    3.0894 H   0  0  0  0  0  0  0  0  0  0  0  0
    2.1117   -7.7582    1.6520 C   0  0  0  0  0  0  0  0  0  0  0  0
    3.1180   -7.7722    1.6291 H   0  0  0  0  0  0  0  0  0  0  0  0
    1.7832   -8.7095    1.7064 H   0  0  0  0  0  0  0  0  0  0  0  0
    1.5560   -7.0664    0.4303 C   0  0  0  0  0  0  0  0  0  0  0  0
    2.2027   -7.0784   -0.3238 H   0  0  0  0  0  0  0  0  0  0  0  0
    0.6872   -7.4598    0.1488 H   0  0  0  0  0  0  0  0  0  0  0  0
  1  5  1  0
  5  6  2  0
  6  8  1  0
  8 10  2  0
 10 12  1  0
 12  5  1  0
  1  2  1  0
  1  3  1  0
  1  4  1  0
  6  7  1  0
  8  9  1  0
 10 11  1  0
 12 13  1  0
 14 18  1  0
 18 19  2  0
 18 20  1  0
 20 21  1  0
 21 24  1  0
 24 27  1  0
 27 30  1  0
 30 20  1  0
 14 15  1  0
 14 16  1  0
 14 17  1  0
 21 22  1  0
 21 23  1  0
 24 25  1  0
 24 26  1  0
 27 28  1  0
 27 29  1  0
 30 31  1  0
 30 32  1  0
M  CHG  1   8   1
M  END
>  <PDB_ID>  (35) 
pdb4b2n

>  <RESIDUE_NAME>  (35) 
HIP   PRO

>  <FRAG_NAME>  (35) 
MIMM   N1PA

>  <FRAG_ATOM_NUM>  (35) 
fragi: 13  fragj: 19

>  <atom.prop.CHAIN_ID>  (35) 
A A A A A A A A A A A A A Z Z Z Z Z Z Z Z Z Z Z Z Z Z Z Z Z Z Z

>  <atom.prop.IS_HEAVY_ATOM>  (35) 
1 0 0 0 1 1 0 1 0 1 0 1 0 1 0 0 0 1 1 1 1 0 0 1 0 0 1 0 0 1 0 0

>  <DIFUSE_FUNC_ATOM>  (35) 
n/a

>  <FINAL_SINGLE_POINT_ENERGY>  (35) 
0

>  <NONCOV_INTER_ENERGY_QM>  (35) 
0

>  <FF_Energy>  (35) 
-16.38

>  <QM_Energy>  (35) 
-22.3

>  <Index>  (35) 
470

$$$$
MIMM-pdb4b2n-B-HIP-517:N1PA-pdb4b2n-B-PRO-430
     RDKit          3D

 32 32  0  0  0  0  0  0  0  0999 V2000
   -0.6591    2.7439    0.0873 C   0  0  0  0  0  0  0  0  0  0  0  0
    0.0280    3.2638    0.6113 H   0  0  0  0  0  0  0  0  0  0  0  0
   -1.5265    2.7647    0.6031 H   0  0  0  0  0  0  0  0  0  0  0  0
   -0.8061    3.2162   -0.8840 H   0  0  0  0  0  0  0  0  0  0  0  0
   -0.2013    1.3188    0.0092 C   0  0  0  0  0  0  0  0  0  0  0  0
    1.0649    0.7839    0.0000 C   0  0  0  0  0  0  0  0  0  0  0  0
    1.9125    1.3112    0.0035 H   0  0  0  0  0  0  0  0  0  0  0  0
    0.9409   -0.5678   -0.0136 N   0  0  0  0  0  4  0  0  0  0  0  0
    1.6828   -1.2363   -0.0298 H   0  0  0  0  0  0  0  0  0  0  0  0
   -0.3662   -0.8803   -0.0023 C   0  0  0  0  0  0  0  0  0  0  0  0
   -0.7396   -1.7939    0.0044 H   0  0  0  0  0  0  0  0  0  0  0  0
   -1.0649    0.2591   -0.0000 N   0  0  0  0  0  0  0  0  0  0  0  0
   -2.0623    0.3155   -0.0048 H   0  0  0  0  0  0  0  0  0  0  0  0
    0.5883   -4.8196   -1.2664 C   0  0  0  0  0  0  0  0  0  0  0  0
    0.7359   -5.8042   -1.4636 H   0  0  0  0  0  0  0  0  0  0  0  0
   -0.4662   -4.6041   -1.4387 H   0  0  0  0  0  0  0  0  0  0  0  0
    1.2325   -4.2866   -1.9657 H   0  0  0  0  0  0  0  0  0  0  0  0
    1.0087   -4.5971    0.1851 C   0  0  0  0  0  0  0  0  0  0  0  0
    0.7694   -3.5283    0.7644 O   0  0  0  0  0  0  0  0  0  0  0  0
    1.5157   -5.6631    0.8285 N   0  0  0  0  0  0  0  0  0  0  0  0
    1.6840   -5.6409    2.2779 C   0  0  0  0  0  0  0  0  0  0  0  0
    0.9231   -5.1297    2.7224 H   0  0  0  0  0  0  0  0  0  0  0  0
    2.6424   -5.2383    2.6053 H   0  0  0  0  0  0  0  0  0  0  0  0
    1.6296   -7.1287    2.6224 C   0  0  0  0  0  0  0  0  0  0  0  0
    2.1477   -7.3239    3.4488 H   0  0  0  0  0  0  0  0  0  0  0  0
    0.6908   -7.4400    2.7207 H   0  0  0  0  0  0  0  0  0  0  0  0
    2.2813   -7.7732    1.4217 C   0  0  0  0  0  0  0  0  0  0  0  0
    3.2756   -7.6919    1.4845 H   0  0  0  0  0  0  0  0  0  0  0  0
    2.0278   -8.7390    1.3700 H   0  0  0  0  0  0  0  0  0  0  0  0
    1.7445   -7.0051    0.2483 C   0  0  0  0  0  0  0  0  0  0  0  0
    2.4070   -6.9546   -0.4928 H   0  0  0  0  0  0  0  0  0  0  0  0
    0.8881   -7.3909   -0.0842 H   0  0  0  0  0  0  0  0  0  0  0  0
  1  5  1  0
  5  6  2  0
  6  8  1  0
  8 10  2  0
 10 12  1  0
 12  5  1  0
  1  2  1  0
  1  3  1  0
  1  4  1  0
  6  7  1  0
  8  9  1  0
 10 11  1  0
 12 13  1  0
 14 18  1  0
 18 19  2  0
 18 20  1  0
 20 21  1  0
 21 24  1  0
 24 27  1  0
 27 30  1  0
 30 20  1  0
 14 15  1  0
 14 16  1  0
 14 17  1  0
 21 22  1  0
 21 23  1  0
 24 25  1  0
 24 26  1  0
 27 28  1  0
 27 29  1  0
 30 31  1  0
 30 32  1  0
M  CHG  1   8   1
M  END
>  <PDB_ID>  (36) 
pdb4b2n

>  <RESIDUE_NAME>  (36) 
HIP   PRO

>  <FRAG_NAME>  (36) 
MIMM   N1PA

>  <FRAG_ATOM_NUM>  (36) 
fragi: 13  fragj: 19

>  <atom.prop.CHAIN_ID>  (36) 
A A A A A A A A A A A A A Z Z Z Z Z Z Z Z Z Z Z Z Z Z Z Z Z Z Z

>  <atom.prop.IS_HEAVY_ATOM>  (36) 
1 0 0 0 1 1 0 1 0 1 0 1 0 1 0 0 0 1 1 1 1 0 0 1 0 0 1 0 0 1 0 0

>  <DIFUSE_FUNC_ATOM>  (36) 
n/a

>  <FINAL_SINGLE_POINT_ENERGY>  (36) 
0

>  <NONCOV_INTER_ENERGY_QM>  (36) 
0

>  <FF_Energy>  (36) 
-16.33

>  <QM_Energy>  (36) 
-21.41

>  <Index>  (36) 
472

$$$$
MIMM-pdb4dn5-A-HIP-537:N1PA-pdb4dn5-A-PRO-557
     RDKit          3D

 32 32  0  0  0  0  0  0  0  0999 V2000
   -0.7112    2.7435    0.0117 C   0  0  0  0  0  0  0  0  0  0  0  0
   -0.1907    3.2421    0.7126 H   0  0  0  0  0  0  0  0  0  0  0  0
   -1.6815    2.7381    0.2779 H   0  0  0  0  0  0  0  0  0  0  0  0
   -0.6043    3.2514   -0.9468 H   0  0  0  0  0  0  0  0  0  0  0  0
   -0.2247    1.3123    0.0041 C   0  0  0  0  0  0  0  0  0  0  0  0
    1.0649    0.7829    0.0000 C   0  0  0  0  0  0  0  0  0  0  0  0
    1.8983    1.3275    0.0002 H   0  0  0  0  0  0  0  0  0  0  0  0
    0.9497   -0.5618   -0.0024 N   0  0  0  0  0  4  0  0  0  0  0  0
    1.6963   -1.2288   -0.0051 H   0  0  0  0  0  0  0  0  0  0  0  0
   -0.3526   -0.8836   -0.0020 C   0  0  0  0  0  0  0  0  0  0  0  0
   -0.7250   -1.7946   -0.0017 H   0  0  0  0  0  0  0  0  0  0  0  0
   -1.0649    0.2612   -0.0000 N   0  0  0  0  0  0  0  0  0  0  0  0
   -2.0659    0.2930   -0.0023 H   0  0  0  0  0  0  0  0  0  0  0  0
   -5.5464   -0.7493   -0.7638 C   0  0  0  0  0  0  0  0  0  0  0  0
   -6.2649   -1.2663   -0.2964 H   0  0  0  0  0  0  0  0  0  0  0  0
   -6.0517   -0.0038   -1.3777 H   0  0  0  0  0  0  0  0  0  0  0  0
   -4.9227   -1.4148   -1.3608 H   0  0  0  0  0  0  0  0  0  0  0  0
   -4.7229   -0.0625    0.3328 C   0  0  0  0  0  0  0  0  0  0  0  0
   -3.9263    0.8326    0.0396 O   0  0  0  0  0  0  0  0  0  0  0  0
   -4.9325   -0.4686    1.6039 N   0  0  0  0  0  0  0  0  0  0  0  0
   -4.1334    0.0296    2.7278 C   0  0  0  0  0  0  0  0  0  0  0  0
   -4.0269    1.0335    2.6729 H   0  0  0  0  0  0  0  0  0  0  0  0
   -3.1588   -0.4550    2.7851 H   0  0  0  0  0  0  0  0  0  0  0  0
   -4.9799   -0.3367    3.9449 C   0  0  0  0  0  0  0  0  0  0  0  0
   -4.3967   -0.5277    4.7374 H   0  0  0  0  0  0  0  0  0  0  0  0
   -5.6108    0.4069    4.1750 H   0  0  0  0  0  0  0  0  0  0  0  0
   -5.7202   -1.5556    3.5185 C   0  0  0  0  0  0  0  0  0  0  0  0
   -5.1654   -2.3829    3.6816 H   0  0  0  0  0  0  0  0  0  0  0  0
   -6.5795   -1.6486    4.0397 H   0  0  0  0  0  0  0  0  0  0  0  0
   -6.0014   -1.3816    2.0542 C   0  0  0  0  0  0  0  0  0  0  0  0
   -5.9470   -2.2520    1.5624 H   0  0  0  0  0  0  0  0  0  0  0  0
   -6.9018   -0.9700    1.8979 H   0  0  0  0  0  0  0  0  0  0  0  0
  1  5  1  0
  5  6  2  0
  6  8  1  0
  8 10  2  0
 10 12  1  0
 12  5  1  0
  1  2  1  0
  1  3  1  0
  1  4  1  0
  6  7  1  0
  8  9  1  0
 10 11  1  0
 12 13  1  0
 14 18  1  0
 18 19  2  0
 18 20  1  0
 20 21  1  0
 21 24  1  0
 24 27  1  0
 27 30  1  0
 30 20  1  0
 14 15  1  0
 14 16  1  0
 14 17  1  0
 21 22  1  0
 21 23  1  0
 24 25  1  0
 24 26  1  0
 27 28  1  0
 27 29  1  0
 30 31  1  0
 30 32  1  0
M  CHG  1   8   1
M  END
>  <PDB_ID>  (37) 
pdb4dn5

>  <RESIDUE_NAME>  (37) 
HIP   PRO

>  <FRAG_NAME>  (37) 
MIMM   N1PA

>  <FRAG_ATOM_NUM>  (37) 
fragi: 13  fragj: 19

>  <atom.prop.CHAIN_ID>  (37) 
A A A A A A A A A A A A A Z Z Z Z Z Z Z Z Z Z Z Z Z Z Z Z Z Z Z

>  <atom.prop.IS_HEAVY_ATOM>  (37) 
1 0 0 0 1 1 0 1 0 1 0 1 0 1 0 0 0 1 1 1 1 0 0 1 0 0 1 0 0 1 0 0

>  <DIFUSE_FUNC_ATOM>  (37) 
n/a

>  <FINAL_SINGLE_POINT_ENERGY>  (37) 
0

>  <NONCOV_INTER_ENERGY_QM>  (37) 
0

>  <FF_Energy>  (37) 
-17.31

>  <QM_Energy>  (37) 
-22.72

>  <Index>  (37) 
515

$$$$
MIMM-pdb4em3-A-HIP-358:N1PA-pdb4em3-A-PRO-363
     RDKit          3D

 32 32  0  0  0  0  0  0  0  0999 V2000
   -0.6832    2.7451   -0.0085 C   0  0  0  0  0  0  0  0  0  0  0  0
   -1.1080    2.9313   -0.9028 H   0  0  0  0  0  0  0  0  0  0  0  0
    0.1186    3.3461    0.0931 H   0  0  0  0  0  0  0  0  0  0  0  0
   -1.3998    2.9749    0.7801 H   0  0  0  0  0  0  0  0  0  0  0  0
   -0.1990    1.3178   -0.0101 C   0  0  0  0  0  0  0  0  0  0  0  0
    1.0551    0.8039    0.0000 C   0  0  0  0  0  0  0  0  0  0  0  0
    1.9064    1.3175    0.0017 H   0  0  0  0  0  0  0  0  0  0  0  0
    0.9273   -0.5657    0.0075 N   0  0  0  0  0  4  0  0  0  0  0  0
    1.6900   -1.2174    0.0142 H   0  0  0  0  0  0  0  0  0  0  0  0
   -0.3493   -0.8799    0.0028 C   0  0  0  0  0  0  0  0  0  0  0  0
   -0.7283   -1.8001    0.0026 H   0  0  0  0  0  0  0  0  0  0  0  0
   -1.0551    0.2442    0.0000 N   0  0  0  0  0  0  0  0  0  0  0  0
   -2.0532    0.2981    0.0043 H   0  0  0  0  0  0  0  0  0  0  0  0
   -2.6523   -2.7905   -2.9323 C   0  0  0  0  0  0  0  0  0  0  0  0
   -2.6992   -3.2834   -3.7979 H   0  0  0  0  0  0  0  0  0  0  0  0
   -3.6351   -2.8050   -2.4612 H   0  0  0  0  0  0  0  0  0  0  0  0
   -2.3338   -1.7701   -3.1459 H   0  0  0  0  0  0  0  0  0  0  0  0
   -1.6782   -3.5367   -2.0201 C   0  0  0  0  0  0  0  0  0  0  0  0
   -1.7282   -3.3901   -0.7980 O   0  0  0  0  0  0  0  0  0  0  0  0
   -0.8147   -4.3725   -2.6140 N   0  0  0  0  0  0  0  0  0  0  0  0
    0.0356   -5.2992   -1.8601 C   0  0  0  0  0  0  0  0  0  0  0  0
   -0.5285   -5.8518   -1.2159 H   0  0  0  0  0  0  0  0  0  0  0  0
    0.8527   -4.8095   -1.3305 H   0  0  0  0  0  0  0  0  0  0  0  0
    0.6134   -6.2118   -2.9530 C   0  0  0  0  0  0  0  0  0  0  0  0
    1.5563   -5.9375   -3.1756 H   0  0  0  0  0  0  0  0  0  0  0  0
    0.6263   -7.1676   -2.6405 H   0  0  0  0  0  0  0  0  0  0  0  0
   -0.2864   -6.0400   -4.1239 C   0  0  0  0  0  0  0  0  0  0  0  0
    0.2076   -6.2265   -4.9796 H   0  0  0  0  0  0  0  0  0  0  0  0
   -1.0690   -6.6682   -4.0627 H   0  0  0  0  0  0  0  0  0  0  0  0
   -0.7334   -4.6164   -4.0612 C   0  0  0  0  0  0  0  0  0  0  0  0
   -0.0705   -4.0006   -4.4834 H   0  0  0  0  0  0  0  0  0  0  0  0
   -1.6279   -4.4898   -4.4890 H   0  0  0  0  0  0  0  0  0  0  0  0
  1  5  1  0
  5  6  2  0
  6  8  1  0
  8 10  2  0
 10 12  1  0
 12  5  1  0
  1  2  1  0
  1  3  1  0
  1  4  1  0
  6  7  1  0
  8  9  1  0
 10 11  1  0
 12 13  1  0
 14 18  1  0
 18 19  2  0
 18 20  1  0
 20 21  1  0
 21 24  1  0
 24 27  1  0
 27 30  1  0
 30 20  1  0
 14 15  1  0
 14 16  1  0
 14 17  1  0
 21 22  1  0
 21 23  1  0
 24 25  1  0
 24 26  1  0
 27 28  1  0
 27 29  1  0
 30 31  1  0
 30 32  1  0
M  CHG  1   8   1
M  END
>  <PDB_ID>  (38) 
pdb4em3

>  <RESIDUE_NAME>  (38) 
HIP   PRO

>  <FRAG_NAME>  (38) 
MIMM   N1PA

>  <FRAG_ATOM_NUM>  (38) 
fragi: 13  fragj: 19

>  <atom.prop.CHAIN_ID>  (38) 
A A A A A A A A A A A A A Z Z Z Z Z Z Z Z Z Z Z Z Z Z Z Z Z Z Z

>  <atom.prop.IS_HEAVY_ATOM>  (38) 
1 0 0 0 1 1 0 1 0 1 0 1 0 1 0 0 0 1 1 1 1 0 0 1 0 0 1 0 0 1 0 0

>  <DIFUSE_FUNC_ATOM>  (38) 
n/a

>  <FINAL_SINGLE_POINT_ENERGY>  (38) 
0

>  <NONCOV_INTER_ENERGY_QM>  (38) 
0

>  <FF_Energy>  (38) 
-9.35

>  <QM_Energy>  (38) 
-16.43

>  <Index>  (38) 
537

$$$$
MIMM-pdb4f3w-A-HIP-108:N1PA-pdb4f3w-A-PRO-112
     RDKit          3D

 32 32  0  0  0  0  0  0  0  0999 V2000
   -0.6869    2.7407    0.0022 C   0  0  0  0  0  0  0  0  0  0  0  0
    0.0699    3.3074    0.3602 H   0  0  0  0  0  0  0  0  0  0  0  0
   -1.4521    2.7993    0.6604 H   0  0  0  0  0  0  0  0  0  0  0  0
   -1.0076    3.1278   -0.9649 H   0  0  0  0  0  0  0  0  0  0  0  0
   -0.2154    1.3130   -0.0219 C   0  0  0  0  0  0  0  0  0  0  0  0
    1.0712    0.7788   -0.0000 C   0  0  0  0  0  0  0  0  0  0  0  0
    1.9066    1.3190    0.0116 H   0  0  0  0  0  0  0  0  0  0  0  0
    0.9509   -0.5665    0.0034 N   0  0  0  0  0  4  0  0  0  0  0  0
    1.6891   -1.2392    0.0009 H   0  0  0  0  0  0  0  0  0  0  0  0
   -0.3623   -0.8822    0.0089 C   0  0  0  0  0  0  0  0  0  0  0  0
   -0.7355   -1.7916    0.0185 H   0  0  0  0  0  0  0  0  0  0  0  0
   -1.0712    0.2663    0.0000 N   0  0  0  0  0  0  0  0  0  0  0  0
   -2.0677    0.3073    0.0081 H   0  0  0  0  0  0  0  0  0  0  0  0
   -5.4370    3.4549    2.1004 C   0  0  0  0  0  0  0  0  0  0  0  0
   -6.0131    4.2263    1.8095 H   0  0  0  0  0  0  0  0  0  0  0  0
   -5.7509    3.1484    3.0057 H   0  0  0  0  0  0  0  0  0  0  0  0
   -5.5189    2.6388    1.3826 H   0  0  0  0  0  0  0  0  0  0  0  0
   -4.0017    3.9095    2.1957 C   0  0  0  0  0  0  0  0  0  0  0  0
   -3.0970    3.0966    2.0543 O   0  0  0  0  0  0  0  0  0  0  0  0
   -3.7821    5.1998    2.4431 N   0  0  0  0  0  0  0  0  0  0  0  0
   -2.4058    5.7029    2.6258 C   0  0  0  0  0  0  0  0  0  0  0  0
   -1.8530    5.5293    1.7806 H   0  0  0  0  0  0  0  0  0  0  0  0
   -1.8802    5.3217    3.5013 H   0  0  0  0  0  0  0  0  0  0  0  0
   -2.6216    7.2070    2.7686 C   0  0  0  0  0  0  0  0  0  0  0  0
   -1.9040    7.6122    3.3416 H   0  0  0  0  0  0  0  0  0  0  0  0
   -2.6077    7.6510    1.8695 H   0  0  0  0  0  0  0  0  0  0  0  0
   -3.9454    7.3166    3.4054 C   0  0  0  0  0  0  0  0  0  0  0  0
   -3.8824    7.1711    4.3987 H   0  0  0  0  0  0  0  0  0  0  0  0
   -4.3521    8.2213    3.2396 H   0  0  0  0  0  0  0  0  0  0  0  0
   -4.7732    6.2384    2.7639 C   0  0  0  0  0  0  0  0  0  0  0  0
   -5.4640    5.8827    3.3941 H   0  0  0  0  0  0  0  0  0  0  0  0
   -5.2213    6.5665    1.9306 H   0  0  0  0  0  0  0  0  0  0  0  0
  1  5  1  0
  5  6  2  0
  6  8  1  0
  8 10  2  0
 10 12  1  0
 12  5  1  0
  1  2  1  0
  1  3  1  0
  1  4  1  0
  6  7  1  0
  8  9  1  0
 10 11  1  0
 12 13  1  0
 14 18  1  0
 18 19  2  0
 18 20  1  0
 20 21  1  0
 21 24  1  0
 24 27  1  0
 27 30  1  0
 30 20  1  0
 14 15  1  0
 14 16  1  0
 14 17  1  0
 21 22  1  0
 21 23  1  0
 24 25  1  0
 24 26  1  0
 27 28  1  0
 27 29  1  0
 30 31  1  0
 30 32  1  0
M  CHG  1   8   1
M  END
>  <PDB_ID>  (39) 
pdb4f3w

>  <RESIDUE_NAME>  (39) 
HIP   PRO

>  <FRAG_NAME>  (39) 
MIMM   N1PA

>  <FRAG_ATOM_NUM>  (39) 
fragi: 13  fragj: 19

>  <atom.prop.CHAIN_ID>  (39) 
A A A A A A A A A A A A A Z Z Z Z Z Z Z Z Z Z Z Z Z Z Z Z Z Z Z

>  <atom.prop.IS_HEAVY_ATOM>  (39) 
1 0 0 0 1 1 0 1 0 1 0 1 0 1 0 0 0 1 1 1 1 0 0 1 0 0 1 0 0 1 0 0

>  <DIFUSE_FUNC_ATOM>  (39) 
n/a

>  <FINAL_SINGLE_POINT_ENERGY>  (39) 
0

>  <NONCOV_INTER_ENERGY_QM>  (39) 
0

>  <FF_Energy>  (39) 
-8.48

>  <QM_Energy>  (39) 
-13.96

>  <Index>  (39) 
548

$$$$
MIMM-pdb3ima-A-HIP-81:N1PA-pdb3ima-A-PRO-102
     RDKit          3D

 32 32  0  0  0  0  0  0  0  0999 V2000
   -0.6675    2.7164    0.1902 C   0  0  0  0  0  0  0  0  0  0  0  0
   -1.5821    2.7995   -0.2164 H   0  0  0  0  0  0  0  0  0  0  0  0
   -0.0416    3.3328   -0.2954 H   0  0  0  0  0  0  0  0  0  0  0  0
   -0.7197    3.0249    1.2343 H   0  0  0  0  0  0  0  0  0  0  0  0
   -0.1921    1.3189    0.0152 C   0  0  0  0  0  0  0  0  0  0  0  0
    1.0570    0.8017    0.0000 C   0  0  0  0  0  0  0  0  0  0  0  0
    1.9117    1.3121   -0.0060 H   0  0  0  0  0  0  0  0  0  0  0  0
    0.9268   -0.5673   -0.0035 N   0  0  0  0  0  4  0  0  0  0  0  0
    1.6828   -1.2232   -0.0048 H   0  0  0  0  0  0  0  0  0  0  0  0
   -0.3583   -0.8750   -0.0068 C   0  0  0  0  0  0  0  0  0  0  0  0
   -0.7347   -1.7982   -0.0117 H   0  0  0  0  0  0  0  0  0  0  0  0
   -1.0570    0.2449    0.0000 N   0  0  0  0  0  0  0  0  0  0  0  0
   -2.0541    0.3088   -0.0054 H   0  0  0  0  0  0  0  0  0  0  0  0
    4.5694   -2.3897   -2.1279 C   0  0  0  0  0  0  0  0  0  0  0  0
    4.9541   -3.2690   -2.3501 H   0  0  0  0  0  0  0  0  0  0  0  0
    5.2225   -1.6622   -2.2545 H   0  0  0  0  0  0  0  0  0  0  0  0
    3.6763   -2.2050   -2.7248 H   0  0  0  0  0  0  0  0  0  0  0  0
    4.0794   -2.3924   -0.7024 C   0  0  0  0  0  0  0  0  0  0  0  0
    2.8691   -2.3527   -0.4767 O   0  0  0  0  0  0  0  0  0  0  0  0
    4.9912   -2.4321    0.2851 N   0  0  0  0  0  0  0  0  0  0  0  0
    4.6694   -2.4454    1.7151 C   0  0  0  0  0  0  0  0  0  0  0  0
    4.3237   -3.3502    1.9972 H   0  0  0  0  0  0  0  0  0  0  0  0
    3.9515   -1.6666    1.9721 H   0  0  0  0  0  0  0  0  0  0  0  0
    6.0383   -2.1991    2.3626 C   0  0  0  0  0  0  0  0  0  0  0  0
    6.2195   -1.2235    2.4428 H   0  0  0  0  0  0  0  0  0  0  0  0
    6.0899   -2.6337    3.2564 H   0  0  0  0  0  0  0  0  0  0  0  0
    6.9845   -2.8437    1.3955 C   0  0  0  0  0  0  0  0  0  0  0  0
    7.9098   -2.5276    1.5511 H   0  0  0  0  0  0  0  0  0  0  0  0
    6.9283   -3.8292    1.4601 H   0  0  0  0  0  0  0  0  0  0  0  0
    6.4506   -2.3504    0.0877 C   0  0  0  0  0  0  0  0  0  0  0  0
    6.7255   -1.4086   -0.0924 H   0  0  0  0  0  0  0  0  0  0  0  0
    6.7331   -2.9341   -0.6718 H   0  0  0  0  0  0  0  0  0  0  0  0
  1  5  1  0
  5  6  2  0
  6  8  1  0
  8 10  2  0
 10 12  1  0
 12  5  1  0
  1  2  1  0
  1  3  1  0
  1  4  1  0
  6  7  1  0
  8  9  1  0
 10 11  1  0
 12 13  1  0
 14 18  1  0
 18 19  2  0
 18 20  1  0
 20 21  1  0
 21 24  1  0
 24 27  1  0
 27 30  1  0
 30 20  1  0
 14 15  1  0
 14 16  1  0
 14 17  1  0
 21 22  1  0
 21 23  1  0
 24 25  1  0
 24 26  1  0
 27 28  1  0
 27 29  1  0
 30 31  1  0
 30 32  1  0
M  CHG  1   8   1
M  END
>  <PDB_ID>  (40) 
pdb3ima

>  <RESIDUE_NAME>  (40) 
HIP   PRO

>  <FRAG_NAME>  (40) 
MIMM   N1PA

>  <FRAG_ATOM_NUM>  (40) 
fragi: 13  fragj: 19

>  <atom.prop.CHAIN_ID>  (40) 
A A A A A A A A A A A A A Z Z Z Z Z Z Z Z Z Z Z Z Z Z Z Z Z Z Z

>  <atom.prop.IS_HEAVY_ATOM>  (40) 
1 0 0 0 1 1 0 1 0 1 0 1 0 1 0 0 0 1 1 1 1 0 0 1 0 0 1 0 0 1 0 0

>  <DIFUSE_FUNC_ATOM>  (40) 
n/a

>  <FINAL_SINGLE_POINT_ENERGY>  (40) 
0

>  <NONCOV_INTER_ENERGY_QM>  (40) 
0

>  <FF_Energy>  (40) 
-19.04

>  <QM_Energy>  (40) 
-25.43

>  <Index>  (40) 
556

$$$$
MIMM-pdb3jub-A-HIP-48:N1PA-pdb3jub-A-PRO-149
     RDKit          3D

 32 32  0  0  0  0  0  0  0  0999 V2000
   -0.6421    2.7318   -0.0070 C   0  0  0  0  0  0  0  0  0  0  0  0
   -1.6397    2.7567   -0.1319 H   0  0  0  0  0  0  0  0  0  0  0  0
   -0.2106    3.1961   -0.7877 H   0  0  0  0  0  0  0  0  0  0  0  0
   -0.3983    3.2907    0.8965 H   0  0  0  0  0  0  0  0  0  0  0  0
   -0.1932    1.3155    0.0206 C   0  0  0  0  0  0  0  0  0  0  0  0
    1.0630    0.7966   -0.0000 C   0  0  0  0  0  0  0  0  0  0  0  0
    1.9130    1.3109   -0.0059 H   0  0  0  0  0  0  0  0  0  0  0  0
    0.9284   -0.5657   -0.0085 N   0  0  0  0  0  4  0  0  0  0  0  0
    1.6827   -1.2278   -0.0158 H   0  0  0  0  0  0  0  0  0  0  0  0
   -0.3600   -0.8768   -0.0081 C   0  0  0  0  0  0  0  0  0  0  0  0
   -0.7352   -1.7963   -0.0121 H   0  0  0  0  0  0  0  0  0  0  0  0
   -1.0630    0.2499    0.0000 N   0  0  0  0  0  0  0  0  0  0  0  0
   -2.0562    0.3102   -0.0072 H   0  0  0  0  0  0  0  0  0  0  0  0
    3.3187    5.4285   -0.5554 C   0  0  0  0  0  0  0  0  0  0  0  0
    4.1702    5.7461   -0.9540 H   0  0  0  0  0  0  0  0  0  0  0  0
    2.5456    6.1311   -0.8666 H   0  0  0  0  0  0  0  0  0  0  0  0
    3.3548    5.3628    0.5321 H   0  0  0  0  0  0  0  0  0  0  0  0
    2.9925    4.0826   -1.1820 C   0  0  0  0  0  0  0  0  0  0  0  0
    2.4920    3.2176   -0.5013 O   0  0  0  0  0  0  0  0  0  0  0  0
    3.2580    3.9304   -2.4905 N   0  0  0  0  0  0  0  0  0  0  0  0
    2.9598    2.6198   -3.1114 C   0  0  0  0  0  0  0  0  0  0  0  0
    1.9790    2.3669   -2.9430 H   0  0  0  0  0  0  0  0  0  0  0  0
    3.6099    1.7932   -2.8246 H   0  0  0  0  0  0  0  0  0  0  0  0
    3.0589    2.9150   -4.6120 C   0  0  0  0  0  0  0  0  0  0  0  0
    3.4067    2.1158   -5.1083 H   0  0  0  0  0  0  0  0  0  0  0  0
    2.1632    3.1664   -4.9843 H   0  0  0  0  0  0  0  0  0  0  0  0
    4.0214    4.0660   -4.7153 C   0  0  0  0  0  0  0  0  0  0  0  0
    4.9472    3.7212   -4.9586 H   0  0  0  0  0  0  0  0  0  0  0  0
    3.7348    4.6893   -5.4668 H   0  0  0  0  0  0  0  0  0  0  0  0
    4.0436    4.7816   -3.4042 C   0  0  0  0  0  0  0  0  0  0  0  0
    4.9829    4.8908   -3.0551 H   0  0  0  0  0  0  0  0  0  0  0  0
    3.6261    5.6972   -3.4720 H   0  0  0  0  0  0  0  0  0  0  0  0
  1  5  1  0
  5  6  2  0
  6  8  1  0
  8 10  2  0
 10 12  1  0
 12  5  1  0
  1  2  1  0
  1  3  1  0
  1  4  1  0
  6  7  1  0
  8  9  1  0
 10 11  1  0
 12 13  1  0
 14 18  1  0
 18 19  2  0
 18 20  1  0
 20 21  1  0
 21 24  1  0
 24 27  1  0
 27 30  1  0
 30 20  1  0
 14 15  1  0
 14 16  1  0
 14 17  1  0
 21 22  1  0
 21 23  1  0
 24 25  1  0
 24 26  1  0
 27 28  1  0
 27 29  1  0
 30 31  1  0
 30 32  1  0
M  CHG  1   8   1
M  END
>  <PDB_ID>  (41) 
pdb3jub

>  <RESIDUE_NAME>  (41) 
HIP   PRO

>  <FRAG_NAME>  (41) 
MIMM   N1PA

>  <FRAG_ATOM_NUM>  (41) 
fragi: 13  fragj: 19

>  <atom.prop.CHAIN_ID>  (41) 
A A A A A A A A A A A A A Z Z Z Z Z Z Z Z Z Z Z Z Z Z Z Z Z Z Z

>  <atom.prop.IS_HEAVY_ATOM>  (41) 
1 0 0 0 1 1 0 1 0 1 0 1 0 1 0 0 0 1 1 1 1 0 0 1 0 0 1 0 0 1 0 0

>  <DIFUSE_FUNC_ATOM>  (41) 
n/a

>  <FINAL_SINGLE_POINT_ENERGY>  (41) 
0

>  <NONCOV_INTER_ENERGY_QM>  (41) 
0

>  <FF_Energy>  (41) 
-8.3

>  <QM_Energy>  (41) 
-15.83

>  <Index>  (41) 
564

$$$$
MIMM-pdb4h4j-A-HIP-178:N1PA-pdb4h4j-A-PRO-135
     RDKit          3D

 32 32  0  0  0  0  0  0  0  0999 V2000
   -0.6937    2.7032   -0.0855 C   0  0  0  0  0  0  0  0  0  0  0  0
   -0.2491    3.2258    0.6462 H   0  0  0  0  0  0  0  0  0  0  0  0
   -1.6842    2.6980    0.0738 H   0  0  0  0  0  0  0  0  0  0  0  0
   -0.4933    3.1917   -1.0391 H   0  0  0  0  0  0  0  0  0  0  0  0
   -0.1969    1.3168   -0.0542 C   0  0  0  0  0  0  0  0  0  0  0  0
    1.0469    0.8047   -0.0000 C   0  0  0  0  0  0  0  0  0  0  0  0
    1.9039    1.3166    0.0128 H   0  0  0  0  0  0  0  0  0  0  0  0
    0.9282   -0.5700    0.0361 N   0  0  0  0  0  4  0  0  0  0  0  0
    1.6903   -1.2151    0.0697 H   0  0  0  0  0  0  0  0  0  0  0  0
   -0.3495   -0.8799    0.0177 C   0  0  0  0  0  0  0  0  0  0  0  0
   -0.7313   -1.7985    0.0180 H   0  0  0  0  0  0  0  0  0  0  0  0
   -1.0469    0.2470    0.0000 N   0  0  0  0  0  0  0  0  0  0  0  0
   -2.0491    0.3011    0.0230 H   0  0  0  0  0  0  0  0  0  0  0  0
   -5.5569    1.4235    1.3902 C   0  0  0  0  0  0  0  0  0  0  0  0
   -6.5125    1.1061    1.4101 H   0  0  0  0  0  0  0  0  0  0  0  0
   -5.1905    1.4934    2.4144 H   0  0  0  0  0  0  0  0  0  0  0  0
   -5.4772    2.3653    0.8474 H   0  0  0  0  0  0  0  0  0  0  0  0
   -4.7479    0.4028    0.6144 C   0  0  0  0  0  0  0  0  0  0  0  0
   -3.5450    0.4906    0.5349 O   0  0  0  0  0  0  0  0  0  0  0  0
   -5.4101   -0.5814    0.0062 N   0  0  0  0  0  0  0  0  0  0  0  0
   -4.6482   -1.5514   -0.7844 C   0  0  0  0  0  0  0  0  0  0  0  0
   -3.8139   -1.8427   -0.2712 H   0  0  0  0  0  0  0  0  0  0  0  0
   -4.3865   -1.2007   -1.7828 H   0  0  0  0  0  0  0  0  0  0  0  0
   -5.5868   -2.7366   -0.8551 C   0  0  0  0  0  0  0  0  0  0  0  0
   -5.4068   -3.2783   -1.6873 H   0  0  0  0  0  0  0  0  0  0  0  0
   -5.4560   -3.3370   -0.0557 H   0  0  0  0  0  0  0  0  0  0  0  0
   -6.9060   -2.1395   -0.8742 C   0  0  0  0  0  0  0  0  0  0  0  0
   -7.1569   -1.7977   -1.7855 H   0  0  0  0  0  0  0  0  0  0  0  0
   -7.6178   -2.7774   -0.5633 H   0  0  0  0  0  0  0  0  0  0  0  0
   -6.8218   -0.9562    0.1065 C   0  0  0  0  0  0  0  0  0  0  0  0
   -7.4139   -0.2182   -0.1881 H   0  0  0  0  0  0  0  0  0  0  0  0
   -7.0552   -1.2488    1.0256 H   0  0  0  0  0  0  0  0  0  0  0  0
  1  5  1  0
  5  6  2  0
  6  8  1  0
  8 10  2  0
 10 12  1  0
 12  5  1  0
  1  2  1  0
  1  3  1  0
  1  4  1  0
  6  7  1  0
  8  9  1  0
 10 11  1  0
 12 13  1  0
 14 18  1  0
 18 19  2  0
 18 20  1  0
 20 21  1  0
 21 24  1  0
 24 27  1  0
 27 30  1  0
 30 20  1  0
 14 15  1  0
 14 16  1  0
 14 17  1  0
 21 22  1  0
 21 23  1  0
 24 25  1  0
 24 26  1  0
 27 28  1  0
 27 29  1  0
 30 31  1  0
 30 32  1  0
M  CHG  1   8   1
M  END
>  <PDB_ID>  (42) 
pdb4h4j

>  <RESIDUE_NAME>  (42) 
HIP   PRO

>  <FRAG_NAME>  (42) 
MIMM   N1PA

>  <FRAG_ATOM_NUM>  (42) 
fragi: 13  fragj: 19

>  <atom.prop.CHAIN_ID>  (42) 
A A A A A A A A A A A A A Z Z Z Z Z Z Z Z Z Z Z Z Z Z Z Z Z Z Z

>  <atom.prop.IS_HEAVY_ATOM>  (42) 
1 0 0 0 1 1 0 1 0 1 0 1 0 1 0 0 0 1 1 1 1 0 0 1 0 0 1 0 0 1 0 0

>  <DIFUSE_FUNC_ATOM>  (42) 
n/a

>  <FINAL_SINGLE_POINT_ENERGY>  (42) 
0

>  <NONCOV_INTER_ENERGY_QM>  (42) 
0

>  <FF_Energy>  (42) 
-18.36

>  <QM_Energy>  (42) 
-26.27

>  <Index>  (42) 
573

$$$$
MIMM-pdb3ks7-A-HIP-385:N1PA-pdb3ks7-A-PRO-382
     RDKit          3D

 32 32  0  0  0  0  0  0  0  0999 V2000
   -0.6647    2.7239    0.0109 C   0  0  0  0  0  0  0  0  0  0  0  0
    0.0027    3.2830    0.5201 H   0  0  0  0  0  0  0  0  0  0  0  0
   -1.5449    2.7640    0.5017 H   0  0  0  0  0  0  0  0  0  0  0  0
   -0.7929    3.1383   -0.9891 H   0  0  0  0  0  0  0  0  0  0  0  0
   -0.1924    1.3169    0.0131 C   0  0  0  0  0  0  0  0  0  0  0  0
    1.0554    0.7989    0.0000 C   0  0  0  0  0  0  0  0  0  0  0  0
    1.9103    1.3117   -0.0048 H   0  0  0  0  0  0  0  0  0  0  0  0
    0.9269   -0.5652   -0.0035 N   0  0  0  0  0  4  0  0  0  0  0  0
    1.6824   -1.2231   -0.0046 H   0  0  0  0  0  0  0  0  0  0  0  0
   -0.3580   -0.8742   -0.0058 C   0  0  0  0  0  0  0  0  0  0  0  0
   -0.7344   -1.7967   -0.0096 H   0  0  0  0  0  0  0  0  0  0  0  0
   -1.0554    0.2460    0.0000 N   0  0  0  0  0  0  0  0  0  0  0  0
   -2.0530    0.3085   -0.0049 H   0  0  0  0  0  0  0  0  0  0  0  0
    2.0416   -4.4750    0.2960 C   0  0  0  0  0  0  0  0  0  0  0  0
    2.5333   -5.3122    0.5400 H   0  0  0  0  0  0  0  0  0  0  0  0
    1.4515   -4.1368    1.1478 H   0  0  0  0  0  0  0  0  0  0  0  0
    1.3940   -4.6856   -0.5551 H   0  0  0  0  0  0  0  0  0  0  0  0
    3.0834   -3.3995   -0.0666 C   0  0  0  0  0  0  0  0  0  0  0  0
    2.7976   -2.2075   -0.0054 O   0  0  0  0  0  0  0  0  0  0  0  0
    4.3094   -3.8171   -0.3952 N   0  0  0  0  0  0  0  0  0  0  0  0
    5.2780   -2.8165   -0.8277 C   0  0  0  0  0  0  0  0  0  0  0  0
    5.5038   -2.1847   -0.0788 H   0  0  0  0  0  0  0  0  0  0  0  0
    4.9025   -2.2695   -1.6925 H   0  0  0  0  0  0  0  0  0  0  0  0
    6.5009   -3.6550   -1.2217 C   0  0  0  0  0  0  0  0  0  0  0  0
    6.5377   -3.7812   -2.2179 H   0  0  0  0  0  0  0  0  0  0  0  0
    7.3480   -3.2091   -0.9216 H   0  0  0  0  0  0  0  0  0  0  0  0
    6.3149   -4.9713   -0.5247 C   0  0  0  0  0  0  0  0  0  0  0  0
    6.7615   -5.7070   -1.0560 H   0  0  0  0  0  0  0  0  0  0  0  0
    6.7529   -4.9414    0.3865 H   0  0  0  0  0  0  0  0  0  0  0  0
    4.8560   -5.1855   -0.4204 C   0  0  0  0  0  0  0  0  0  0  0  0
    4.4902   -5.6886   -1.2082 H   0  0  0  0  0  0  0  0  0  0  0  0
    4.6035   -5.6740    0.4204 H   0  0  0  0  0  0  0  0  0  0  0  0
  1  5  1  0
  5  6  2  0
  6  8  1  0
  8 10  2  0
 10 12  1  0
 12  5  1  0
  1  2  1  0
  1  3  1  0
  1  4  1  0
  6  7  1  0
  8  9  1  0
 10 11  1  0
 12 13  1  0
 14 18  1  0
 18 19  2  0
 18 20  1  0
 20 21  1  0
 21 24  1  0
 24 27  1  0
 27 30  1  0
 30 20  1  0
 14 15  1  0
 14 16  1  0
 14 17  1  0
 21 22  1  0
 21 23  1  0
 24 25  1  0
 24 26  1  0
 27 28  1  0
 27 29  1  0
 30 31  1  0
 30 32  1  0
M  CHG  1   8   1
M  END
>  <PDB_ID>  (43) 
pdb3ks7

>  <RESIDUE_NAME>  (43) 
HIP   PRO

>  <FRAG_NAME>  (43) 
MIMM   N1PA

>  <FRAG_ATOM_NUM>  (43) 
fragi: 13  fragj: 19

>  <atom.prop.CHAIN_ID>  (43) 
A A A A A A A A A A A A A Z Z Z Z Z Z Z Z Z Z Z Z Z Z Z Z Z Z Z

>  <atom.prop.IS_HEAVY_ATOM>  (43) 
1 0 0 0 1 1 0 1 0 1 0 1 0 1 0 0 0 1 1 1 1 0 0 1 0 0 1 0 0 1 0 0

>  <DIFUSE_FUNC_ATOM>  (43) 
n/a

>  <FINAL_SINGLE_POINT_ENERGY>  (43) 
0

>  <NONCOV_INTER_ENERGY_QM>  (43) 
0

>  <FF_Energy>  (43) 
-11.65

>  <QM_Energy>  (43) 
-25.97

>  <Index>  (43) 
583

$$$$
MIMM-pdb3ks7-B-HIP-385:N1PA-pdb3ks7-B-PRO-382
     RDKit          3D

 32 32  0  0  0  0  0  0  0  0999 V2000
   -0.6690    2.7362   -0.0279 C   0  0  0  0  0  0  0  0  0  0  0  0
   -0.0265    3.3006    0.5020 H   0  0  0  0  0  0  0  0  0  0  0  0
   -1.5717    2.7798    0.4120 H   0  0  0  0  0  0  0  0  0  0  0  0
   -0.7495    3.1467   -1.0345 H   0  0  0  0  0  0  0  0  0  0  0  0
   -0.1942    1.3196    0.0059 C   0  0  0  0  0  0  0  0  0  0  0  0
    1.0584    0.7989    0.0000 C   0  0  0  0  0  0  0  0  0  0  0  0
    1.9117    1.3116   -0.0095 H   0  0  0  0  0  0  0  0  0  0  0  0
    0.9280   -0.5665    0.0103 N   0  0  0  0  0  4  0  0  0  0  0  0
    1.6837   -1.2250    0.0257 H   0  0  0  0  0  0  0  0  0  0  0  0
   -0.3578   -0.8764   -0.0049 C   0  0  0  0  0  0  0  0  0  0  0  0
   -0.7338   -1.7978   -0.0162 H   0  0  0  0  0  0  0  0  0  0  0  0
   -1.0584    0.2458    0.0000 N   0  0  0  0  0  0  0  0  0  0  0  0
   -2.0556    0.3072   -0.0016 H   0  0  0  0  0  0  0  0  0  0  0  0
    1.4970   -4.5313    0.2866 C   0  0  0  0  0  0  0  0  0  0  0  0
    1.8870   -5.4285    0.4974 H   0  0  0  0  0  0  0  0  0  0  0  0
    0.9550   -4.1611    1.1568 H   0  0  0  0  0  0  0  0  0  0  0  0
    0.8246   -4.6199   -0.5666 H   0  0  0  0  0  0  0  0  0  0  0  0
    2.6389   -3.5714   -0.0326 C   0  0  0  0  0  0  0  0  0  0  0  0
    2.4745   -2.3547    0.0888 O   0  0  0  0  0  0  0  0  0  0  0  0
    3.8130   -4.1043   -0.4068 N   0  0  0  0  0  0  0  0  0  0  0  0
    4.8803   -3.2073   -0.7748 C   0  0  0  0  0  0  0  0  0  0  0  0
    5.1324   -2.6012   -0.0080 H   0  0  0  0  0  0  0  0  0  0  0  0
    4.6098   -2.6175   -1.6507 H   0  0  0  0  0  0  0  0  0  0  0  0
    6.0420   -4.1542   -1.0927 C   0  0  0  0  0  0  0  0  0  0  0  0
    6.1171   -4.2872   -2.0897 H   0  0  0  0  0  0  0  0  0  0  0  0
    6.9099   -3.7610   -0.7630 H   0  0  0  0  0  0  0  0  0  0  0  0
    5.7124   -5.3986   -0.4028 C   0  0  0  0  0  0  0  0  0  0  0  0
    6.1536   -6.1904   -0.8527 H   0  0  0  0  0  0  0  0  0  0  0  0
    6.0308   -5.3749    0.5574 H   0  0  0  0  0  0  0  0  0  0  0  0
    4.2399   -5.5032   -0.4709 C   0  0  0  0  0  0  0  0  0  0  0  0
    3.9314   -5.9242   -1.3263 H   0  0  0  0  0  0  0  0  0  0  0  0
    3.8626   -6.0206    0.3013 H   0  0  0  0  0  0  0  0  0  0  0  0
  1  5  1  0
  5  6  2  0
  6  8  1  0
  8 10  2  0
 10 12  1  0
 12  5  1  0
  1  2  1  0
  1  3  1  0
  1  4  1  0
  6  7  1  0
  8  9  1  0
 10 11  1  0
 12 13  1  0
 14 18  1  0
 18 19  2  0
 18 20  1  0
 20 21  1  0
 21 24  1  0
 24 27  1  0
 27 30  1  0
 30 20  1  0
 14 15  1  0
 14 16  1  0
 14 17  1  0
 21 22  1  0
 21 23  1  0
 24 25  1  0
 24 26  1  0
 27 28  1  0
 27 29  1  0
 30 31  1  0
 30 32  1  0
M  CHG  1   8   1
M  END
>  <PDB_ID>  (44) 
pdb3ks7

>  <RESIDUE_NAME>  (44) 
HIP   PRO

>  <FRAG_NAME>  (44) 
MIMM   N1PA

>  <FRAG_ATOM_NUM>  (44) 
fragi: 13  fragj: 19

>  <atom.prop.CHAIN_ID>  (44) 
A A A A A A A A A A A A A Z Z Z Z Z Z Z Z Z Z Z Z Z Z Z Z Z Z Z

>  <atom.prop.IS_HEAVY_ATOM>  (44) 
1 0 0 0 1 1 0 1 0 1 0 1 0 1 0 0 0 1 1 1 1 0 0 1 0 0 1 0 0 1 0 0

>  <DIFUSE_FUNC_ATOM>  (44) 
n/a

>  <FINAL_SINGLE_POINT_ENERGY>  (44) 
0

>  <NONCOV_INTER_ENERGY_QM>  (44) 
0

>  <FF_Energy>  (44) 
5.27

>  <QM_Energy>  (44) 
-21.5

>  <Index>  (44) 
585

$$$$
MIMM-pdb3ks7-C-HIP-385:N1PA-pdb3ks7-C-PRO-382
     RDKit          3D

 32 32  0  0  0  0  0  0  0  0999 V2000
   -0.6731    2.7318   -0.0371 C   0  0  0  0  0  0  0  0  0  0  0  0
    0.0170    3.3112    0.4117 H   0  0  0  0  0  0  0  0  0  0  0  0
   -1.5274    2.7893    0.4918 H   0  0  0  0  0  0  0  0  0  0  0  0
   -0.8540    3.1129   -1.0422 H   0  0  0  0  0  0  0  0  0  0  0  0
   -0.1957    1.3196   -0.0088 C   0  0  0  0  0  0  0  0  0  0  0  0
    1.0559    0.8006   -0.0000 C   0  0  0  0  0  0  0  0  0  0  0  0
    1.9096    1.3138    0.0032 H   0  0  0  0  0  0  0  0  0  0  0  0
    0.9286   -0.5681    0.0057 N   0  0  0  0  0  4  0  0  0  0  0  0
    1.6858   -1.2234    0.0105 H   0  0  0  0  0  0  0  0  0  0  0  0
   -0.3552   -0.8770    0.0025 C   0  0  0  0  0  0  0  0  0  0  0  0
   -0.7329   -1.7983    0.0031 H   0  0  0  0  0  0  0  0  0  0  0  0
   -1.0559    0.2462    0.0000 N   0  0  0  0  0  0  0  0  0  0  0  0
   -2.0538    0.3048    0.0034 H   0  0  0  0  0  0  0  0  0  0  0  0
    2.0493   -4.4796    0.1947 C   0  0  0  0  0  0  0  0  0  0  0  0
    2.5153   -5.3518    0.3644 H   0  0  0  0  0  0  0  0  0  0  0  0
    1.5153   -4.1724    1.0938 H   0  0  0  0  0  0  0  0  0  0  0  0
    1.3525   -4.5978   -0.6351 H   0  0  0  0  0  0  0  0  0  0  0  0
    3.1039   -3.4318   -0.1516 C   0  0  0  0  0  0  0  0  0  0  0  0
    2.9047   -2.2385    0.0833 O   0  0  0  0  0  0  0  0  0  0  0  0
    4.2441   -3.8700   -0.6843 N   0  0  0  0  0  0  0  0  0  0  0  0
    5.2096   -2.8884   -1.0820 C   0  0  0  0  0  0  0  0  0  0  0  0
    5.4592   -2.2835   -0.3160 H   0  0  0  0  0  0  0  0  0  0  0  0
    4.8242   -2.3084   -1.9204 H   0  0  0  0  0  0  0  0  0  0  0  0
    6.4129   -3.7269   -1.5195 C   0  0  0  0  0  0  0  0  0  0  0  0
    6.4746   -3.7471   -2.5278 H   0  0  0  0  0  0  0  0  0  0  0  0
    7.2669   -3.3211   -1.1659 H   0  0  0  0  0  0  0  0  0  0  0  0
    6.1811   -5.0656   -0.9665 C   0  0  0  0  0  0  0  0  0  0  0  0
    6.6112   -5.7736   -1.5540 H   0  0  0  0  0  0  0  0  0  0  0  0
    6.6008   -5.1486   -0.0450 H   0  0  0  0  0  0  0  0  0  0  0  0
    4.7240   -5.2352   -0.9059 C   0  0  0  0  0  0  0  0  0  0  0  0
    4.3474   -5.6015   -1.7616 H   0  0  0  0  0  0  0  0  0  0  0  0
    4.4406   -5.8309   -0.1475 H   0  0  0  0  0  0  0  0  0  0  0  0
  1  5  1  0
  5  6  2  0
  6  8  1  0
  8 10  2  0
 10 12  1  0
 12  5  1  0
  1  2  1  0
  1  3  1  0
  1  4  1  0
  6  7  1  0
  8  9  1  0
 10 11  1  0
 12 13  1  0
 14 18  1  0
 18 19  2  0
 18 20  1  0
 20 21  1  0
 21 24  1  0
 24 27  1  0
 27 30  1  0
 30 20  1  0
 14 15  1  0
 14 16  1  0
 14 17  1  0
 21 22  1  0
 21 23  1  0
 24 25  1  0
 24 26  1  0
 27 28  1  0
 27 29  1  0
 30 31  1  0
 30 32  1  0
M  CHG  1   8   1
M  END
>  <PDB_ID>  (45) 
pdb3ks7

>  <RESIDUE_NAME>  (45) 
HIP   PRO

>  <FRAG_NAME>  (45) 
MIMM   N1PA

>  <FRAG_ATOM_NUM>  (45) 
fragi: 13  fragj: 19

>  <atom.prop.CHAIN_ID>  (45) 
A A A A A A A A A A A A A Z Z Z Z Z Z Z Z Z Z Z Z Z Z Z Z Z Z Z

>  <atom.prop.IS_HEAVY_ATOM>  (45) 
1 0 0 0 1 1 0 1 0 1 0 1 0 1 0 0 0 1 1 1 1 0 0 1 0 0 1 0 0 1 0 0

>  <DIFUSE_FUNC_ATOM>  (45) 
n/a

>  <FINAL_SINGLE_POINT_ENERGY>  (45) 
0

>  <NONCOV_INTER_ENERGY_QM>  (45) 
0

>  <FF_Energy>  (45) 
-16.62

>  <QM_Energy>  (45) 
-26.68

>  <Index>  (45) 
587

$$$$
MIMM-pdb4j8c-A-HIP-24:N1PA-pdb4j8c-A-PRO-44
     RDKit          3D

 32 32  0  0  0  0  0  0  0  0999 V2000
   -0.6719    2.7174    0.0041 C   0  0  0  0  0  0  0  0  0  0  0  0
   -1.2522    2.8493    0.8177 H   0  0  0  0  0  0  0  0  0  0  0  0
   -1.2410    2.8631   -0.8156 H   0  0  0  0  0  0  0  0  0  0  0  0
    0.1287    3.4571    0.0153 H   0  0  0  0  0  0  0  0  0  0  0  0
   -0.1872    1.3099   -0.0051 C   0  0  0  0  0  0  0  0  0  0  0  0
    1.0682    0.7902    0.0000 C   0  0  0  0  0  0  0  0  0  0  0  0
    1.9195    1.3033    0.0044 H   0  0  0  0  0  0  0  0  0  0  0  0
    0.9312   -0.5712   -0.0005 N   0  0  0  0  0  4  0  0  0  0  0  0
    1.6736   -1.2370   -0.0033 H   0  0  0  0  0  0  0  0  0  0  0  0
   -0.3600   -0.8529    0.0018 C   0  0  0  0  0  0  0  0  0  0  0  0
   -0.7440   -1.7855    0.0056 H   0  0  0  0  0  0  0  0  0  0  0  0
   -1.0682    0.2565   -0.0000 N   0  0  0  0  0  0  0  0  0  0  0  0
   -2.0568    0.3235    0.0010 H   0  0  0  0  0  0  0  0  0  0  0  0
    4.6880   -4.2180   -0.5416 C   0  0  0  0  0  0  0  0  0  0  0  0
    4.8936   -4.8114   -1.3436 H   0  0  0  0  0  0  0  0  0  0  0  0
    5.4170   -3.4128   -0.4511 H   0  0  0  0  0  0  0  0  0  0  0  0
    4.8565   -4.7866    0.3729 H   0  0  0  0  0  0  0  0  0  0  0  0
    3.2442   -3.7151   -0.6196 C   0  0  0  0  0  0  0  0  0  0  0  0
    2.9167   -2.6409   -0.1097 O   0  0  0  0  0  0  0  0  0  0  0  0
    2.3728   -4.5421   -1.1793 N   0  0  0  0  0  0  0  0  0  0  0  0
    0.9323   -4.2671   -1.1950 C   0  0  0  0  0  0  0  0  0  0  0  0
    0.7554   -3.3146   -1.5123 H   0  0  0  0  0  0  0  0  0  0  0  0
    0.4376   -4.4453   -0.2402 H   0  0  0  0  0  0  0  0  0  0  0  0
    0.3911   -5.2519   -2.2133 C   0  0  0  0  0  0  0  0  0  0  0  0
   -0.5200   -5.5886   -1.9198 H   0  0  0  0  0  0  0  0  0  0  0  0
    0.2650   -4.7919   -3.1086 H   0  0  0  0  0  0  0  0  0  0  0  0
    1.3647   -6.3014   -2.2734 C   0  0  0  0  0  0  0  0  0  0  0  0
    1.0690   -7.1154   -1.6970 H   0  0  0  0  0  0  0  0  0  0  0  0
    1.4262   -6.6952   -3.2337 H   0  0  0  0  0  0  0  0  0  0  0  0
    2.6835   -5.8230   -1.8358 C   0  0  0  0  0  0  0  0  0  0  0  0
    3.1185   -6.4471   -1.1821 H   0  0  0  0  0  0  0  0  0  0  0  0
    3.3108   -5.6718   -2.6056 H   0  0  0  0  0  0  0  0  0  0  0  0
  1  5  1  0
  5  6  2  0
  6  8  1  0
  8 10  2  0
 10 12  1  0
 12  5  1  0
  1  2  1  0
  1  3  1  0
  1  4  1  0
  6  7  1  0
  8  9  1  0
 10 11  1  0
 12 13  1  0
 14 18  1  0
 18 19  2  0
 18 20  1  0
 20 21  1  0
 21 24  1  0
 24 27  1  0
 27 30  1  0
 30 20  1  0
 14 15  1  0
 14 16  1  0
 14 17  1  0
 21 22  1  0
 21 23  1  0
 24 25  1  0
 24 26  1  0
 27 28  1  0
 27 29  1  0
 30 31  1  0
 30 32  1  0
M  CHG  1   8   1
M  END
>  <PDB_ID>  (46) 
pdb4j8c

>  <RESIDUE_NAME>  (46) 
HIP   PRO

>  <FRAG_NAME>  (46) 
MIMM   N1PA

>  <FRAG_ATOM_NUM>  (46) 
fragi: 13  fragj: 19

>  <atom.prop.CHAIN_ID>  (46) 
A A A A A A A A A A A A A Z Z Z Z Z Z Z Z Z Z Z Z Z Z Z Z Z Z Z

>  <atom.prop.IS_HEAVY_ATOM>  (46) 
1 0 0 0 1 1 0 1 0 1 0 1 0 1 0 0 0 1 1 1 1 0 0 1 0 0 1 0 0 1 0 0

>  <DIFUSE_FUNC_ATOM>  (46) 
n/a

>  <FINAL_SINGLE_POINT_ENERGY>  (46) 
0

>  <NONCOV_INTER_ENERGY_QM>  (46) 
0

>  <FF_Energy>  (46) 
-18.19

>  <QM_Energy>  (46) 
-24.52

>  <Index>  (46) 
605

$$$$
MIMM-pdb4hzc-F-HIP-21:N1PA-pdb4hzc-F-PRO-18
     RDKit          3D

 32 32  0  0  0  0  0  0  0  0999 V2000
   -0.7016    2.7360    0.0197 C   0  0  0  0  0  0  0  0  0  0  0  0
   -1.4612    2.8284   -0.6234 H   0  0  0  0  0  0  0  0  0  0  0  0
    0.0502    3.3306   -0.2651 H   0  0  0  0  0  0  0  0  0  0  0  0
   -1.0334    3.0241    1.0172 H   0  0  0  0  0  0  0  0  0  0  0  0
   -0.2180    1.3144   -0.0272 C   0  0  0  0  0  0  0  0  0  0  0  0
    1.0688    0.7859    0.0000 C   0  0  0  0  0  0  0  0  0  0  0  0
    1.9031    1.3248    0.0137 H   0  0  0  0  0  0  0  0  0  0  0  0
    0.9484   -0.5625    0.0051 N   0  0  0  0  0  4  0  0  0  0  0  0
    1.6919   -1.2323    0.0043 H   0  0  0  0  0  0  0  0  0  0  0  0
   -0.3624   -0.8857    0.0106 C   0  0  0  0  0  0  0  0  0  0  0  0
   -0.7303   -1.7962    0.0221 H   0  0  0  0  0  0  0  0  0  0  0  0
   -1.0688    0.2584   -0.0000 N   0  0  0  0  0  0  0  0  0  0  0  0
   -2.0678    0.3006    0.0104 H   0  0  0  0  0  0  0  0  0  0  0  0
   -5.1151   -1.2194   -1.1428 C   0  0  0  0  0  0  0  0  0  0  0  0
   -6.0492   -1.2680   -1.4445 H   0  0  0  0  0  0  0  0  0  0  0  0
   -4.4944   -1.5850   -1.9608 H   0  0  0  0  0  0  0  0  0  0  0  0
   -4.8514   -1.7257   -0.2142 H   0  0  0  0  0  0  0  0  0  0  0  0
   -4.7325    0.2122   -1.0574 C   0  0  0  0  0  0  0  0  0  0  0  0
   -3.9108    0.5599   -0.2306 O   0  0  0  0  0  0  0  0  0  0  0  0
   -5.2925    1.0437   -1.9572 N   0  0  0  0  0  0  0  0  0  0  0  0
   -4.9053    2.4592   -2.0040 C   0  0  0  0  0  0  0  0  0  0  0  0
   -3.9270    2.5565   -2.2487 H   0  0  0  0  0  0  0  0  0  0  0  0
   -5.1127    2.9879   -1.0737 H   0  0  0  0  0  0  0  0  0  0  0  0
   -5.7453    3.0234   -3.1712 C   0  0  0  0  0  0  0  0  0  0  0  0
   -6.0807    3.9399   -2.9488 H   0  0  0  0  0  0  0  0  0  0  0  0
   -5.1978    3.0654   -4.0076 H   0  0  0  0  0  0  0  0  0  0  0  0
   -6.8857    2.0561   -3.3219 C   0  0  0  0  0  0  0  0  0  0  0  0
   -7.6240    2.2851   -2.6854 H   0  0  0  0  0  0  0  0  0  0  0  0
   -7.2376    2.0764   -4.2589 H   0  0  0  0  0  0  0  0  0  0  0  0
   -6.2910    0.7110   -2.9972 C   0  0  0  0  0  0  0  0  0  0  0  0
   -6.9766    0.0852   -2.6345 H   0  0  0  0  0  0  0  0  0  0  0  0
   -5.8445    0.3058   -3.7917 H   0  0  0  0  0  0  0  0  0  0  0  0
  1  5  1  0
  5  6  2  0
  6  8  1  0
  8 10  2  0
 10 12  1  0
 12  5  1  0
  1  2  1  0
  1  3  1  0
  1  4  1  0
  6  7  1  0
  8  9  1  0
 10 11  1  0
 12 13  1  0
 14 18  1  0
 18 19  2  0
 18 20  1  0
 20 21  1  0
 21 24  1  0
 24 27  1  0
 27 30  1  0
 30 20  1  0
 14 15  1  0
 14 16  1  0
 14 17  1  0
 21 22  1  0
 21 23  1  0
 24 25  1  0
 24 26  1  0
 27 28  1  0
 27 29  1  0
 30 31  1  0
 30 32  1  0
M  CHG  1   8   1
M  END
>  <PDB_ID>  (47) 
pdb4hzc

>  <RESIDUE_NAME>  (47) 
HIP   PRO

>  <FRAG_NAME>  (47) 
MIMM   N1PA

>  <FRAG_ATOM_NUM>  (47) 
fragi: 13  fragj: 19

>  <atom.prop.CHAIN_ID>  (47) 
A A A A A A A A A A A A A Z Z Z Z Z Z Z Z Z Z Z Z Z Z Z Z Z Z Z

>  <atom.prop.IS_HEAVY_ATOM>  (47) 
1 0 0 0 1 1 0 1 0 1 0 1 0 1 0 0 0 1 1 1 1 0 0 1 0 0 1 0 0 1 0 0

>  <DIFUSE_FUNC_ATOM>  (47) 
n/a

>  <FINAL_SINGLE_POINT_ENERGY>  (47) 
0

>  <NONCOV_INTER_ENERGY_QM>  (47) 
0

>  <FF_Energy>  (47) 
-19.24

>  <QM_Energy>  (47) 
-24.38

>  <Index>  (47) 
607

$$$$
MIMM-pdb3mbr-X-HIP-38:N1PA-pdb3mbr-X-PRO-247
     RDKit          3D

 32 32  0  0  0  0  0  0  0  0999 V2000
   -0.6786    2.7679   -0.0320 C   0  0  0  0  0  0  0  0  0  0  0  0
   -0.2401    3.2325    0.7495 H   0  0  0  0  0  0  0  0  0  0  0  0
   -1.6738    2.7489    0.1357 H   0  0  0  0  0  0  0  0  0  0  0  0
   -0.4877    3.3473   -0.9353 H   0  0  0  0  0  0  0  0  0  0  0  0
   -0.1833    1.3318   -0.0602 C   0  0  0  0  0  0  0  0  0  0  0  0
    1.0658    0.7967    0.0000 C   0  0  0  0  0  0  0  0  0  0  0  0
    1.9247    1.3003    0.0313 H   0  0  0  0  0  0  0  0  0  0  0  0
    0.9366   -0.5884    0.0109 N   0  0  0  0  0  4  0  0  0  0  0  0
    1.6821   -1.2412    0.0076 H   0  0  0  0  0  0  0  0  0  0  0  0
   -0.3688   -0.8886    0.0246 C   0  0  0  0  0  0  0  0  0  0  0  0
   -0.7533   -1.7984    0.0494 H   0  0  0  0  0  0  0  0  0  0  0  0
   -1.0658    0.2583   -0.0000 N   0  0  0  0  0  0  0  0  0  0  0  0
   -2.0562    0.3280    0.0205 H   0  0  0  0  0  0  0  0  0  0  0  0
   -4.8225   -0.1999    1.5463 C   0  0  0  0  0  0  0  0  0  0  0  0
   -5.7918   -0.2483    1.7613 H   0  0  0  0  0  0  0  0  0  0  0  0
   -4.5533   -1.1232    1.0332 H   0  0  0  0  0  0  0  0  0  0  0  0
   -4.2106   -0.0200    2.4302 H   0  0  0  0  0  0  0  0  0  0  0  0
   -4.6186    0.9904    0.5838 C   0  0  0  0  0  0  0  0  0  0  0  0
   -3.6397    1.0384   -0.1638 O   0  0  0  0  0  0  0  0  0  0  0  0
   -5.4858    2.0158    0.6754 N   0  0  0  0  0  0  0  0  0  0  0  0
   -5.3386    3.1918   -0.2087 C   0  0  0  0  0  0  0  0  0  0  0  0
   -5.1125    2.9014   -1.1433 H   0  0  0  0  0  0  0  0  0  0  0  0
   -4.5861    3.8772    0.1814 H   0  0  0  0  0  0  0  0  0  0  0  0
   -6.7234    3.8557   -0.1946 C   0  0  0  0  0  0  0  0  0  0  0  0
   -6.6462    4.8401   -0.2740 H   0  0  0  0  0  0  0  0  0  0  0  0
   -7.3026    3.4866   -0.9072 H   0  0  0  0  0  0  0  0  0  0  0  0
   -7.2498    3.4699    1.1751 C   0  0  0  0  0  0  0  0  0  0  0  0
   -6.8902    4.0903    1.8713 H   0  0  0  0  0  0  0  0  0  0  0  0
   -8.2489    3.5013    1.1825 H   0  0  0  0  0  0  0  0  0  0  0  0
   -6.7525    2.0490    1.4089 C   0  0  0  0  0  0  0  0  0  0  0  0
   -6.6084    1.8784    2.3816 H   0  0  0  0  0  0  0  0  0  0  0  0
   -7.3979    1.3808    1.0416 H   0  0  0  0  0  0  0  0  0  0  0  0
  1  5  1  0
  5  6  2  0
  6  8  1  0
  8 10  2  0
 10 12  1  0
 12  5  1  0
  1  2  1  0
  1  3  1  0
  1  4  1  0
  6  7  1  0
  8  9  1  0
 10 11  1  0
 12 13  1  0
 14 18  1  0
 18 19  2  0
 18 20  1  0
 20 21  1  0
 21 24  1  0
 24 27  1  0
 27 30  1  0
 30 20  1  0
 14 15  1  0
 14 16  1  0
 14 17  1  0
 21 22  1  0
 21 23  1  0
 24 25  1  0
 24 26  1  0
 27 28  1  0
 27 29  1  0
 30 31  1  0
 30 32  1  0
M  CHG  1   8   1
M  END
>  <PDB_ID>  (48) 
pdb3mbr

>  <RESIDUE_NAME>  (48) 
HIP   PRO

>  <FRAG_NAME>  (48) 
MIMM   N1PA

>  <FRAG_ATOM_NUM>  (48) 
fragi: 13  fragj: 19

>  <atom.prop.CHAIN_ID>  (48) 
A A A A A A A A A A A A A Z Z Z Z Z Z Z Z Z Z Z Z Z Z Z Z Z Z Z

>  <atom.prop.IS_HEAVY_ATOM>  (48) 
1 0 0 0 1 1 0 1 0 1 0 1 0 1 0 0 0 1 1 1 1 0 0 1 0 0 1 0 0 1 0 0

>  <DIFUSE_FUNC_ATOM>  (48) 
n/a

>  <FINAL_SINGLE_POINT_ENERGY>  (48) 
0

>  <NONCOV_INTER_ENERGY_QM>  (48) 
0

>  <FF_Energy>  (48) 
-19.51

>  <QM_Energy>  (48) 
-26.84

>  <Index>  (48) 
615

$$$$
MIMM-pdb3mq0-B-HIP-99:N1PA-pdb3mq0-A-PRO-43
     RDKit          3D

 32 32  0  0  0  0  0  0  0  0999 V2000
   -0.6718    2.7419    0.0058 C   0  0  0  0  0  0  0  0  0  0  0  0
   -1.1000    2.9299   -0.8857 H   0  0  0  0  0  0  0  0  0  0  0  0
    0.1295    3.3428    0.1062 H   0  0  0  0  0  0  0  0  0  0  0  0
   -1.3859    2.9708    0.7969 H   0  0  0  0  0  0  0  0  0  0  0  0
   -0.1945    1.3201    0.0067 C   0  0  0  0  0  0  0  0  0  0  0  0
    1.0562    0.8005    0.0000 C   0  0  0  0  0  0  0  0  0  0  0  0
    1.9102    1.3131   -0.0010 H   0  0  0  0  0  0  0  0  0  0  0  0
    0.9275   -0.5668   -0.0039 N   0  0  0  0  0  4  0  0  0  0  0  0
    1.6843   -1.2233   -0.0075 H   0  0  0  0  0  0  0  0  0  0  0  0
   -0.3575   -0.8771   -0.0029 C   0  0  0  0  0  0  0  0  0  0  0  0
   -0.7330   -1.7988   -0.0028 H   0  0  0  0  0  0  0  0  0  0  0  0
   -1.0562    0.2450    0.0000 N   0  0  0  0  0  0  0  0  0  0  0  0
   -2.0540    0.3066   -0.0032 H   0  0  0  0  0  0  0  0  0  0  0  0
    3.4971   -4.7219   -0.8961 C   0  0  0  0  0  0  0  0  0  0  0  0
    3.6587   -5.6213   -0.4785 H   0  0  0  0  0  0  0  0  0  0  0  0
    2.6888   -4.8235   -1.6203 H   0  0  0  0  0  0  0  0  0  0  0  0
    4.4063   -4.3644   -1.3794 H   0  0  0  0  0  0  0  0  0  0  0  0
    3.0964   -3.7587    0.2062 C   0  0  0  0  0  0  0  0  0  0  0  0
    2.9084   -2.5663   -0.0393 O   0  0  0  0  0  0  0  0  0  0  0  0
    2.9803   -4.2678    1.4351 N   0  0  0  0  0  0  0  0  0  0  0  0
    2.6434   -3.3967    2.5680 C   0  0  0  0  0  0  0  0  0  0  0  0
    1.6845   -3.0939    2.5122 H   0  0  0  0  0  0  0  0  0  0  0  0
    3.3140   -2.5391    2.6221 H   0  0  0  0  0  0  0  0  0  0  0  0
    2.8435   -4.3104    3.7824 C   0  0  0  0  0  0  0  0  0  0  0  0
    3.2523   -3.8016    4.5451 H   0  0  0  0  0  0  0  0  0  0  0  0
    1.9692   -4.6988    4.0820 H   0  0  0  0  0  0  0  0  0  0  0  0
    3.7713   -5.3888    3.3043 C   0  0  0  0  0  0  0  0  0  0  0  0
    4.7227   -5.0866    3.3728 H   0  0  0  0  0  0  0  0  0  0  0  0
    3.6477   -6.2208    3.8464 H   0  0  0  0  0  0  0  0  0  0  0  0
    3.3784   -5.6147    1.8710 C   0  0  0  0  0  0  0  0  0  0  0  0
    4.1467   -5.9471    1.3291 H   0  0  0  0  0  0  0  0  0  0  0  0
    2.6116   -6.2495    1.7975 H   0  0  0  0  0  0  0  0  0  0  0  0
  1  5  1  0
  5  6  2  0
  6  8  1  0
  8 10  2  0
 10 12  1  0
 12  5  1  0
  1  2  1  0
  1  3  1  0
  1  4  1  0
  6  7  1  0
  8  9  1  0
 10 11  1  0
 12 13  1  0
 14 18  1  0
 18 19  2  0
 18 20  1  0
 20 21  1  0
 21 24  1  0
 24 27  1  0
 27 30  1  0
 30 20  1  0
 14 15  1  0
 14 16  1  0
 14 17  1  0
 21 22  1  0
 21 23  1  0
 24 25  1  0
 24 26  1  0
 27 28  1  0
 27 29  1  0
 30 31  1  0
 30 32  1  0
M  CHG  1   8   1
M  END
>  <PDB_ID>  (49) 
pdb3mq0

>  <RESIDUE_NAME>  (49) 
HIP   PRO

>  <FRAG_NAME>  (49) 
MIMM   N1PA

>  <FRAG_ATOM_NUM>  (49) 
fragi: 13  fragj: 19

>  <atom.prop.CHAIN_ID>  (49) 
A A A A A A A A A A A A A Z Z Z Z Z Z Z Z Z Z Z Z Z Z Z Z Z Z Z

>  <atom.prop.IS_HEAVY_ATOM>  (49) 
1 0 0 0 1 1 0 1 0 1 0 1 0 1 0 0 0 1 1 1 1 0 0 1 0 0 1 0 0 1 0 0

>  <DIFUSE_FUNC_ATOM>  (49) 
n/a

>  <FINAL_SINGLE_POINT_ENERGY>  (49) 
0

>  <NONCOV_INTER_ENERGY_QM>  (49) 
0

>  <FF_Energy>  (49) 
-19.0

>  <QM_Energy>  (49) 
-25.13

>  <Index>  (49) 
622

$$$$
MIMM-pdb4kbx-A-HIP-286:N1PA-pdb4kbx-A-PRO-341
     RDKit          3D

 32 32  0  0  0  0  0  0  0  0999 V2000
   -0.6709    2.7294   -0.0240 C   0  0  0  0  0  0  0  0  0  0  0  0
   -1.6717    2.7246   -0.1460 H   0  0  0  0  0  0  0  0  0  0  0  0
   -0.2610    3.1938   -0.8193 H   0  0  0  0  0  0  0  0  0  0  0  0
   -0.4248    3.2883    0.8789 H   0  0  0  0  0  0  0  0  0  0  0  0
   -0.1939    1.3182   -0.0085 C   0  0  0  0  0  0  0  0  0  0  0  0
    1.0574    0.8011    0.0000 C   0  0  0  0  0  0  0  0  0  0  0  0
    1.9108    1.3129    0.0025 H   0  0  0  0  0  0  0  0  0  0  0  0
    0.9278   -0.5666    0.0053 N   0  0  0  0  0  4  0  0  0  0  0  0
    1.6842   -1.2232    0.0096 H   0  0  0  0  0  0  0  0  0  0  0  0
   -0.3580   -0.8762    0.0023 C   0  0  0  0  0  0  0  0  0  0  0  0
   -0.7338   -1.7985    0.0031 H   0  0  0  0  0  0  0  0  0  0  0  0
   -1.0574    0.2458    0.0000 N   0  0  0  0  0  0  0  0  0  0  0  0
   -2.0550    0.3077    0.0029 H   0  0  0  0  0  0  0  0  0  0  0  0
    4.6702   -2.0349   -1.8280 C   0  0  0  0  0  0  0  0  0  0  0  0
    4.6695   -2.6203   -2.6345 H   0  0  0  0  0  0  0  0  0  0  0  0
    4.3170   -1.0532   -2.1438 H   0  0  0  0  0  0  0  0  0  0  0  0
    5.6479   -1.9458   -1.3544 H   0  0  0  0  0  0  0  0  0  0  0  0
    3.6499   -2.6138   -0.8604 C   0  0  0  0  0  0  0  0  0  0  0  0
    2.9061   -1.8623   -0.2274 O   0  0  0  0  0  0  0  0  0  0  0  0
    3.5813   -3.9505   -0.7589 N   0  0  0  0  0  0  0  0  0  0  0  0
    2.5590   -4.5301    0.1166 C   0  0  0  0  0  0  0  0  0  0  0  0
    1.6283   -4.3180   -0.2384 H   0  0  0  0  0  0  0  0  0  0  0  0
    2.6541   -4.2184    1.1568 H   0  0  0  0  0  0  0  0  0  0  0  0
    2.8262   -6.0323    0.0206 C   0  0  0  0  0  0  0  0  0  0  0  0
    3.4319   -6.3358    0.7588 H   0  0  0  0  0  0  0  0  0  0  0  0
    1.9713   -6.5505    0.0620 H   0  0  0  0  0  0  0  0  0  0  0  0
    3.4921   -6.2112   -1.3184 C   0  0  0  0  0  0  0  0  0  0  0  0
    4.0568   -7.0389   -1.3159 H   0  0  0  0  0  0  0  0  0  0  0  0
    2.8005   -6.2868   -2.0402 H   0  0  0  0  0  0  0  0  0  0  0  0
    4.3319   -4.9824   -1.4978 C   0  0  0  0  0  0  0  0  0  0  0  0
    5.2443   -5.0985   -1.1056 H   0  0  0  0  0  0  0  0  0  0  0  0
    4.4155   -4.7302   -2.4628 H   0  0  0  0  0  0  0  0  0  0  0  0
  1  5  1  0
  5  6  2  0
  6  8  1  0
  8 10  2  0
 10 12  1  0
 12  5  1  0
  1  2  1  0
  1  3  1  0
  1  4  1  0
  6  7  1  0
  8  9  1  0
 10 11  1  0
 12 13  1  0
 14 18  1  0
 18 19  2  0
 18 20  1  0
 20 21  1  0
 21 24  1  0
 24 27  1  0
 27 30  1  0
 30 20  1  0
 14 15  1  0
 14 16  1  0
 14 17  1  0
 21 22  1  0
 21 23  1  0
 24 25  1  0
 24 26  1  0
 27 28  1  0
 27 29  1  0
 30 31  1  0
 30 32  1  0
M  CHG  1   8   1
M  END
>  <PDB_ID>  (50) 
pdb4kbx

>  <RESIDUE_NAME>  (50) 
HIP   PRO

>  <FRAG_NAME>  (50) 
MIMM   N1PA

>  <FRAG_ATOM_NUM>  (50) 
fragi: 13  fragj: 19

>  <atom.prop.CHAIN_ID>  (50) 
A A A A A A A A A A A A A Z Z Z Z Z Z Z Z Z Z Z Z Z Z Z Z Z Z Z

>  <atom.prop.IS_HEAVY_ATOM>  (50) 
1 0 0 0 1 1 0 1 0 1 0 1 0 1 0 0 0 1 1 1 1 0 0 1 0 0 1 0 0 1 0 0

>  <DIFUSE_FUNC_ATOM>  (50) 
n/a

>  <FINAL_SINGLE_POINT_ENERGY>  (50) 
0

>  <NONCOV_INTER_ENERGY_QM>  (50) 
0

>  <FF_Energy>  (50) 
1.83

>  <QM_Energy>  (50) 
-21.99

>  <Index>  (50) 
629

$$$$
MIMM-pdb3nol-A-HIP-39:N1PA-pdb3nol-A-PRO-247
     RDKit          3D

 32 32  0  0  0  0  0  0  0  0999 V2000
   -0.6982    2.7423   -0.0066 C   0  0  0  0  0  0  0  0  0  0  0  0
   -0.2060    3.2439    0.7141 H   0  0  0  0  0  0  0  0  0  0  0  0
   -1.6778    2.7316    0.2254 H   0  0  0  0  0  0  0  0  0  0  0  0
   -0.5651    3.2640   -0.9543 H   0  0  0  0  0  0  0  0  0  0  0  0
   -0.2028    1.3213   -0.0119 C   0  0  0  0  0  0  0  0  0  0  0  0
    1.0562    0.8042   -0.0000 C   0  0  0  0  0  0  0  0  0  0  0  0
    1.9063    1.3203    0.0051 H   0  0  0  0  0  0  0  0  0  0  0  0
    0.9332   -0.5688    0.0044 N   0  0  0  0  0  4  0  0  0  0  0  0
    1.6903   -1.2204    0.0060 H   0  0  0  0  0  0  0  0  0  0  0  0
   -0.3552   -0.8820    0.0039 C   0  0  0  0  0  0  0  0  0  0  0  0
   -0.7304   -1.8017    0.0075 H   0  0  0  0  0  0  0  0  0  0  0  0
   -1.0562    0.2450   -0.0000 N   0  0  0  0  0  0  0  0  0  0  0  0
   -2.0573    0.2989    0.0043 H   0  0  0  0  0  0  0  0  0  0  0  0
   -5.0340    0.0547    1.4622 C   0  0  0  0  0  0  0  0  0  0  0  0
   -6.0295    0.0960    1.5576 H   0  0  0  0  0  0  0  0  0  0  0  0
   -4.7774   -0.8912    0.9851 H   0  0  0  0  0  0  0  0  0  0  0  0
   -4.5616    0.1245    2.4420 H   0  0  0  0  0  0  0  0  0  0  0  0
   -4.6154    1.2227    0.5567 C   0  0  0  0  0  0  0  0  0  0  0  0
   -3.5511    1.1737   -0.0751 O   0  0  0  0  0  0  0  0  0  0  0  0
   -5.4634    2.2655    0.4620 N   0  0  0  0  0  0  0  0  0  0  0  0
   -5.1551    3.4132   -0.4186 C   0  0  0  0  0  0  0  0  0  0  0  0
   -4.8583    3.0766   -1.3379 H   0  0  0  0  0  0  0  0  0  0  0  0
   -4.4263    4.1177   -0.0178 H   0  0  0  0  0  0  0  0  0  0  0  0
   -6.5164    4.1207   -0.5551 C   0  0  0  0  0  0  0  0  0  0  0  0
   -6.4004    5.0986   -0.6738 H   0  0  0  0  0  0  0  0  0  0  0  0
   -7.0460    3.7365   -1.2990 H   0  0  0  0  0  0  0  0  0  0  0  0
   -7.1973    3.8278    0.7864 C   0  0  0  0  0  0  0  0  0  0  0  0
   -6.8746    4.4704    1.4756 H   0  0  0  0  0  0  0  0  0  0  0  0
   -8.1849    3.9020    0.6857 H   0  0  0  0  0  0  0  0  0  0  0  0
   -6.7844    2.4088    1.1223 C   0  0  0  0  0  0  0  0  0  0  0  0
   -6.6966    2.2799    2.1083 H   0  0  0  0  0  0  0  0  0  0  0  0
   -7.4330    1.7436    0.7533 H   0  0  0  0  0  0  0  0  0  0  0  0
  1  5  1  0
  5  6  2  0
  6  8  1  0
  8 10  2  0
 10 12  1  0
 12  5  1  0
  1  2  1  0
  1  3  1  0
  1  4  1  0
  6  7  1  0
  8  9  1  0
 10 11  1  0
 12 13  1  0
 14 18  1  0
 18 19  2  0
 18 20  1  0
 20 21  1  0
 21 24  1  0
 24 27  1  0
 27 30  1  0
 30 20  1  0
 14 15  1  0
 14 16  1  0
 14 17  1  0
 21 22  1  0
 21 23  1  0
 24 25  1  0
 24 26  1  0
 27 28  1  0
 27 29  1  0
 30 31  1  0
 30 32  1  0
M  CHG  1   8   1
M  END
>  <PDB_ID>  (51) 
pdb3nol

>  <RESIDUE_NAME>  (51) 
HIP   PRO

>  <FRAG_NAME>  (51) 
MIMM   N1PA

>  <FRAG_ATOM_NUM>  (51) 
fragi: 13  fragj: 19

>  <atom.prop.CHAIN_ID>  (51) 
A A A A A A A A A A A A A Z Z Z Z Z Z Z Z Z Z Z Z Z Z Z Z Z Z Z

>  <atom.prop.IS_HEAVY_ATOM>  (51) 
1 0 0 0 1 1 0 1 0 1 0 1 0 1 0 0 0 1 1 1 1 0 0 1 0 0 1 0 0 1 0 0

>  <DIFUSE_FUNC_ATOM>  (51) 
n/a

>  <FINAL_SINGLE_POINT_ENERGY>  (51) 
0

>  <NONCOV_INTER_ENERGY_QM>  (51) 
0

>  <FF_Energy>  (51) 
-19.63

>  <QM_Energy>  (51) 
-27.61

>  <Index>  (51) 
639

$$$$
MIMM-pdb4leu-A-HIP-245:N1PA-pdb4leu-A-PRO-242
     RDKit          3D

 32 32  0  0  0  0  0  0  0  0999 V2000
   -0.6861    2.7455   -0.0198 C   0  0  0  0  0  0  0  0  0  0  0  0
   -0.0035    3.3093    0.4576 H   0  0  0  0  0  0  0  0  0  0  0  0
   -1.5536    2.7948    0.4875 H   0  0  0  0  0  0  0  0  0  0  0  0
   -0.8387    3.1458   -1.0221 H   0  0  0  0  0  0  0  0  0  0  0  0
   -0.2128    1.3195   -0.0003 C   0  0  0  0  0  0  0  0  0  0  0  0
    1.0728    0.7889    0.0000 C   0  0  0  0  0  0  0  0  0  0  0  0
    1.9094    1.3213    0.0050 H   0  0  0  0  0  0  0  0  0  0  0  0
    0.9463   -0.5653   -0.0057 N   0  0  0  0  0  4  0  0  0  0  0  0
    1.6894   -1.2342   -0.0141 H   0  0  0  0  0  0  0  0  0  0  0  0
   -0.3659   -0.8884    0.0005 C   0  0  0  0  0  0  0  0  0  0  0  0
   -0.7334   -1.7994    0.0061 H   0  0  0  0  0  0  0  0  0  0  0  0
   -1.0728    0.2562   -0.0000 N   0  0  0  0  0  0  0  0  0  0  0  0
   -2.0689    0.3044   -0.0008 H   0  0  0  0  0  0  0  0  0  0  0  0
   -5.1283    4.7029    1.8211 C   0  0  0  0  0  0  0  0  0  0  0  0
   -6.1292    4.6410    1.7648 H   0  0  0  0  0  0  0  0  0  0  0  0
   -4.8818    4.8334    2.8749 H   0  0  0  0  0  0  0  0  0  0  0  0
   -4.7516    5.5389    1.2318 H   0  0  0  0  0  0  0  0  0  0  0  0
   -4.5702    3.3874    1.3006 C   0  0  0  0  0  0  0  0  0  0  0  0
   -3.6679    3.3880    0.4647 O   0  0  0  0  0  0  0  0  0  0  0  0
   -5.1165    2.2690    1.8071 N   0  0  0  0  0  0  0  0  0  0  0  0
   -4.6087    0.9391    1.4552 C   0  0  0  0  0  0  0  0  0  0  0  0
   -3.6847    0.7998    1.8272 H   0  0  0  0  0  0  0  0  0  0  0  0
   -4.6169    0.7964    0.3746 H   0  0  0  0  0  0  0  0  0  0  0  0
   -5.6136   -0.0121    2.1255 C   0  0  0  0  0  0  0  0  0  0  0  0
   -6.2823   -0.3473    1.4547 H   0  0  0  0  0  0  0  0  0  0  0  0
   -5.1388   -0.8007    2.5268 H   0  0  0  0  0  0  0  0  0  0  0  0
   -6.2872    0.8042    3.1882 C   0  0  0  0  0  0  0  0  0  0  0  0
   -7.2165    0.4576    3.3574 H   0  0  0  0  0  0  0  0  0  0  0  0
   -5.7668    0.7540    4.0475 H   0  0  0  0  0  0  0  0  0  0  0  0
   -6.3214    2.2044    2.6582 C   0  0  0  0  0  0  0  0  0  0  0  0
   -7.1414    2.3737    2.1134 H   0  0  0  0  0  0  0  0  0  0  0  0
   -6.2647    2.8807    3.3935 H   0  0  0  0  0  0  0  0  0  0  0  0
  1  5  1  0
  5  6  2  0
  6  8  1  0
  8 10  2  0
 10 12  1  0
 12  5  1  0
  1  2  1  0
  1  3  1  0
  1  4  1  0
  6  7  1  0
  8  9  1  0
 10 11  1  0
 12 13  1  0
 14 18  1  0
 18 19  2  0
 18 20  1  0
 20 21  1  0
 21 24  1  0
 24 27  1  0
 27 30  1  0
 30 20  1  0
 14 15  1  0
 14 16  1  0
 14 17  1  0
 21 22  1  0
 21 23  1  0
 24 25  1  0
 24 26  1  0
 27 28  1  0
 27 29  1  0
 30 31  1  0
 30 32  1  0
M  CHG  1   8   1
M  END
>  <PDB_ID>  (52) 
pdb4leu

>  <RESIDUE_NAME>  (52) 
HIP   PRO

>  <FRAG_NAME>  (52) 
MIMM   N1PA

>  <FRAG_ATOM_NUM>  (52) 
fragi: 13  fragj: 19

>  <atom.prop.CHAIN_ID>  (52) 
A A A A A A A A A A A A A Z Z Z Z Z Z Z Z Z Z Z Z Z Z Z Z Z Z Z

>  <atom.prop.IS_HEAVY_ATOM>  (52) 
1 0 0 0 1 1 0 1 0 1 0 1 0 1 0 0 0 1 1 1 1 0 0 1 0 0 1 0 0 1 0 0

>  <DIFUSE_FUNC_ATOM>  (52) 
n/a

>  <FINAL_SINGLE_POINT_ENERGY>  (52) 
0

>  <NONCOV_INTER_ENERGY_QM>  (52) 
0

>  <FF_Energy>  (52) 
-6.17

>  <QM_Energy>  (52) 
-11.81

>  <Index>  (52) 
649

$$$$
MIMM-pdb4or9-A-HIP-164:N1PA-pdb4or9-A-PRO-494
     RDKit          3D

 32 32  0  0  0  0  0  0  0  0999 V2000
   -0.6692    2.7407    0.0078 C   0  0  0  0  0  0  0  0  0  0  0  0
   -0.7346    3.0543    0.9631 H   0  0  0  0  0  0  0  0  0  0  0  0
   -1.5931    2.7650   -0.3950 H   0  0  0  0  0  0  0  0  0  0  0  0
   -0.0268    3.4265   -0.5446 H   0  0  0  0  0  0  0  0  0  0  0  0
   -0.1947    1.3205    0.0093 C   0  0  0  0  0  0  0  0  0  0  0  0
    1.0554    0.8011   -0.0000 C   0  0  0  0  0  0  0  0  0  0  0  0
    1.9104    1.3138   -0.0016 H   0  0  0  0  0  0  0  0  0  0  0  0
    0.9272   -0.5663   -0.0056 N   0  0  0  0  0  4  0  0  0  0  0  0
    1.6846   -1.2224   -0.0109 H   0  0  0  0  0  0  0  0  0  0  0  0
   -0.3570   -0.8758   -0.0038 C   0  0  0  0  0  0  0  0  0  0  0  0
   -0.7326   -1.7986   -0.0036 H   0  0  0  0  0  0  0  0  0  0  0  0
   -1.0554    0.2434    0.0000 N   0  0  0  0  0  0  0  0  0  0  0  0
   -2.0542    0.3057   -0.0043 H   0  0  0  0  0  0  0  0  0  0  0  0
    0.7606   -3.2392   -2.8886 C   0  0  0  0  0  0  0  0  0  0  0  0
    1.1653   -3.8878   -3.5466 H   0  0  0  0  0  0  0  0  0  0  0  0
   -0.3230   -3.2028   -3.0009 H   0  0  0  0  0  0  0  0  0  0  0  0
    1.0616   -2.2151   -3.1093 H   0  0  0  0  0  0  0  0  0  0  0  0
    1.1610   -3.5985   -1.4606 C   0  0  0  0  0  0  0  0  0  0  0  0
    0.4302   -3.2635   -0.5284 O   0  0  0  0  0  0  0  0  0  0  0  0
    2.3104   -4.2709   -1.2931 N   0  0  0  0  0  0  0  0  0  0  0  0
    2.8105   -4.7292    0.0109 C   0  0  0  0  0  0  0  0  0  0  0  0
    2.2027   -5.4521    0.3888 H   0  0  0  0  0  0  0  0  0  0  0  0
    2.9401   -3.9248    0.7348 H   0  0  0  0  0  0  0  0  0  0  0  0
    4.1670   -5.3477   -0.3373 C   0  0  0  0  0  0  0  0  0  0  0  0
    4.9016   -4.6730   -0.2255 H   0  0  0  0  0  0  0  0  0  0  0  0
    4.3571   -6.1364    0.2516 H   0  0  0  0  0  0  0  0  0  0  0  0
    4.0318   -5.7616   -1.7625 C   0  0  0  0  0  0  0  0  0  0  0  0
    4.9353   -5.8094   -2.2032 H   0  0  0  0  0  0  0  0  0  0  0  0
    3.5965   -6.6660   -1.8262 H   0  0  0  0  0  0  0  0  0  0  0  0
    3.1792   -4.7088   -2.3989 C   0  0  0  0  0  0  0  0  0  0  0  0
    3.7272   -3.9433   -2.7366 H   0  0  0  0  0  0  0  0  0  0  0  0
    2.6298   -5.0803   -3.1491 H   0  0  0  0  0  0  0  0  0  0  0  0
  1  5  1  0
  5  6  2  0
  6  8  1  0
  8 10  2  0
 10 12  1  0
 12  5  1  0
  1  2  1  0
  1  3  1  0
  1  4  1  0
  6  7  1  0
  8  9  1  0
 10 11  1  0
 12 13  1  0
 14 18  1  0
 18 19  2  0
 18 20  1  0
 20 21  1  0
 21 24  1  0
 24 27  1  0
 27 30  1  0
 30 20  1  0
 14 15  1  0
 14 16  1  0
 14 17  1  0
 21 22  1  0
 21 23  1  0
 24 25  1  0
 24 26  1  0
 27 28  1  0
 27 29  1  0
 30 31  1  0
 30 32  1  0
M  CHG  1   8   1
M  END
>  <PDB_ID>  (53) 
pdb4or9

>  <RESIDUE_NAME>  (53) 
HIP   PRO

>  <FRAG_NAME>  (53) 
MIMM   N1PA

>  <FRAG_ATOM_NUM>  (53) 
fragi: 13  fragj: 19

>  <atom.prop.CHAIN_ID>  (53) 
A A A A A A A A A A A A A Z Z Z Z Z Z Z Z Z Z Z Z Z Z Z Z Z Z Z

>  <atom.prop.IS_HEAVY_ATOM>  (53) 
1 0 0 0 1 1 0 1 0 1 0 1 0 1 0 0 0 1 1 1 1 0 0 1 0 0 1 0 0 1 0 0

>  <DIFUSE_FUNC_ATOM>  (53) 
n/a

>  <FINAL_SINGLE_POINT_ENERGY>  (53) 
0

>  <NONCOV_INTER_ENERGY_QM>  (53) 
0

>  <FF_Energy>  (53) 
-3.53

>  <QM_Energy>  (53) 
-17.95

>  <Index>  (53) 
704

$$$$
MIMM-pdb3ry0-A-HIP-28:N1PA-pdb3ry0-A-PRO-34
     RDKit          3D

 32 32  0  0  0  0  0  0  0  0999 V2000
   -0.6408    2.7556   -0.0020 C   0  0  0  0  0  0  0  0  0  0  0  0
   -1.2360    2.9054   -0.8060 H   0  0  0  0  0  0  0  0  0  0  0  0
    0.1752    3.3430   -0.1108 H   0  0  0  0  0  0  0  0  0  0  0  0
   -1.1756    3.0464    0.9021 H   0  0  0  0  0  0  0  0  0  0  0  0
   -0.1798    1.3195   -0.0345 C   0  0  0  0  0  0  0  0  0  0  0  0
    1.0603    0.7864    0.0000 C   0  0  0  0  0  0  0  0  0  0  0  0
    1.9217    1.2971    0.0181 H   0  0  0  0  0  0  0  0  0  0  0  0
    0.9255   -0.5706    0.0076 N   0  0  0  0  0  4  0  0  0  0  0  0
    1.6762   -1.2359    0.0073 H   0  0  0  0  0  0  0  0  0  0  0  0
   -0.3636   -0.8769    0.0134 C   0  0  0  0  0  0  0  0  0  0  0  0
   -0.7458   -1.7921    0.0270 H   0  0  0  0  0  0  0  0  0  0  0  0
   -1.0603    0.2568   -0.0000 N   0  0  0  0  0  0  0  0  0  0  0  0
   -2.0518    0.3262    0.0118 H   0  0  0  0  0  0  0  0  0  0  0  0
   -5.6037    0.5550    1.7444 C   0  0  0  0  0  0  0  0  0  0  0  0
   -6.2459   -0.1766    1.9240 H   0  0  0  0  0  0  0  0  0  0  0  0
   -4.9127    0.6336    2.5837 H   0  0  0  0  0  0  0  0  0  0  0  0
   -6.1592    1.4849    1.6223 H   0  0  0  0  0  0  0  0  0  0  0  0
   -4.7736    0.1683    0.4984 C   0  0  0  0  0  0  0  0  0  0  0  0
   -3.7318    0.7495    0.1941 O   0  0  0  0  0  0  0  0  0  0  0  0
   -5.2224   -0.7885   -0.3240 N   0  0  0  0  0  0  0  0  0  0  0  0
   -4.5364   -1.0758   -1.5688 C   0  0  0  0  0  0  0  0  0  0  0  0
   -3.6086   -1.4475   -1.4006 H   0  0  0  0  0  0  0  0  0  0  0  0
   -4.4720   -0.2065   -2.2232 H   0  0  0  0  0  0  0  0  0  0  0  0
   -5.3851   -2.2255   -2.2053 C   0  0  0  0  0  0  0  0  0  0  0  0
   -6.0410   -1.8507   -2.8416 H   0  0  0  0  0  0  0  0  0  0  0  0
   -4.7933   -2.8844   -2.6403 H   0  0  0  0  0  0  0  0  0  0  0  0
   -6.0672   -2.8133   -0.9973 C   0  0  0  0  0  0  0  0  0  0  0  0
   -6.9118   -3.2893   -1.2739 H   0  0  0  0  0  0  0  0  0  0  0  0
   -5.4608   -3.4833   -0.5492 H   0  0  0  0  0  0  0  0  0  0  0  0
   -6.3729   -1.6632   -0.0782 C   0  0  0  0  0  0  0  0  0  0  0  0
   -7.2207   -1.2122   -0.3295 H   0  0  0  0  0  0  0  0  0  0  0  0
   -6.4009   -1.9536    0.8721 H   0  0  0  0  0  0  0  0  0  0  0  0
  1  5  1  0
  5  6  2  0
  6  8  1  0
  8 10  2  0
 10 12  1  0
 12  5  1  0
  1  2  1  0
  1  3  1  0
  1  4  1  0
  6  7  1  0
  8  9  1  0
 10 11  1  0
 12 13  1  0
 14 18  1  0
 18 19  2  0
 18 20  1  0
 20 21  1  0
 21 24  1  0
 24 27  1  0
 27 30  1  0
 30 20  1  0
 14 15  1  0
 14 16  1  0
 14 17  1  0
 21 22  1  0
 21 23  1  0
 24 25  1  0
 24 26  1  0
 27 28  1  0
 27 29  1  0
 30 31  1  0
 30 32  1  0
M  CHG  1   8   1
M  END
>  <PDB_ID>  (54) 
pdb3ry0

>  <RESIDUE_NAME>  (54) 
HIP   PRO

>  <FRAG_NAME>  (54) 
MIMM   N1PA

>  <FRAG_ATOM_NUM>  (54) 
fragi: 13  fragj: 19

>  <atom.prop.CHAIN_ID>  (54) 
A A A A A A A A A A A A A Z Z Z Z Z Z Z Z Z Z Z Z Z Z Z Z Z Z Z

>  <atom.prop.IS_HEAVY_ATOM>  (54) 
1 0 0 0 1 1 0 1 0 1 0 1 0 1 0 0 0 1 1 1 1 0 0 1 0 0 1 0 0 1 0 0

>  <DIFUSE_FUNC_ATOM>  (54) 
n/a

>  <FINAL_SINGLE_POINT_ENERGY>  (54) 
0

>  <NONCOV_INTER_ENERGY_QM>  (54) 
0

>  <FF_Energy>  (54) 
-19.39

>  <QM_Energy>  (54) 
-25.37

>  <Index>  (54) 
727

$$$$
MIMM-pdb3ry0-B-HIP-28:N1PA-pdb3ry0-B-PRO-34
     RDKit          3D

 32 32  0  0  0  0  0  0  0  0999 V2000
   -0.6462    2.7185    0.0754 C   0  0  0  0  0  0  0  0  0  0  0  0
   -1.2502    2.8440   -0.7221 H   0  0  0  0  0  0  0  0  0  0  0  0
    0.1608    3.3096   -0.0452 H   0  0  0  0  0  0  0  0  0  0  0  0
   -1.1774    3.0182    0.9788 H   0  0  0  0  0  0  0  0  0  0  0  0
   -0.1934    1.3077    0.1030 C   0  0  0  0  0  0  0  0  0  0  0  0
    1.0612    0.7975    0.0000 C   0  0  0  0  0  0  0  0  0  0  0  0
    1.9086    1.3144   -0.0168 H   0  0  0  0  0  0  0  0  0  0  0  0
    0.9226   -0.5573   -0.0737 N   0  0  0  0  0  4  0  0  0  0  0  0
    1.6798   -1.2180   -0.1480 H   0  0  0  0  0  0  0  0  0  0  0  0
   -0.3540   -0.8691   -0.0341 C   0  0  0  0  0  0  0  0  0  0  0  0
   -0.7292   -1.7943   -0.0293 H   0  0  0  0  0  0  0  0  0  0  0  0
   -1.0612    0.2463    0.0000 N   0  0  0  0  0  0  0  0  0  0  0  0
   -2.0534    0.3088   -0.0425 H   0  0  0  0  0  0  0  0  0  0  0  0
   -5.5860    1.0345    1.2967 C   0  0  0  0  0  0  0  0  0  0  0  0
   -6.3643    0.4510    1.4425 H   0  0  0  0  0  0  0  0  0  0  0  0
   -4.9622    0.9834    2.1891 H   0  0  0  0  0  0  0  0  0  0  0  0
   -5.7237    2.0865    1.0466 H   0  0  0  0  0  0  0  0  0  0  0  0
   -4.7327    0.4740    0.1941 C   0  0  0  0  0  0  0  0  0  0  0  0
   -3.6066    0.9116    0.0291 O   0  0  0  0  0  0  0  0  0  0  0  0
   -5.2672   -0.4318   -0.6371 N   0  0  0  0  0  0  0  0  0  0  0  0
   -4.5691   -0.8109   -1.8632 C   0  0  0  0  0  0  0  0  0  0  0  0
   -3.7284   -1.3261   -1.6603 H   0  0  0  0  0  0  0  0  0  0  0  0
   -4.3334    0.0601   -2.4747 H   0  0  0  0  0  0  0  0  0  0  0  0
   -5.5717   -1.8204   -2.5503 C   0  0  0  0  0  0  0  0  0  0  0  0
   -6.1174   -1.3386   -3.2174 H   0  0  0  0  0  0  0  0  0  0  0  0
   -5.0642   -2.5599   -2.9609 H   0  0  0  0  0  0  0  0  0  0  0  0
   -6.3881   -2.2802   -1.3892 C   0  0  0  0  0  0  0  0  0  0  0  0
   -7.2857   -2.6323   -1.7104 H   0  0  0  0  0  0  0  0  0  0  0  0
   -5.9207   -3.0486   -0.9160 H   0  0  0  0  0  0  0  0  0  0  0  0
   -6.5644   -1.1176   -0.4779 C   0  0  0  0  0  0  0  0  0  0  0  0
   -7.3067   -0.5252   -0.7681 H   0  0  0  0  0  0  0  0  0  0  0  0
   -6.6931   -1.3992    0.4676 H   0  0  0  0  0  0  0  0  0  0  0  0
  1  5  1  0
  5  6  2  0
  6  8  1  0
  8 10  2  0
 10 12  1  0
 12  5  1  0
  1  2  1  0
  1  3  1  0
  1  4  1  0
  6  7  1  0
  8  9  1  0
 10 11  1  0
 12 13  1  0
 14 18  1  0
 18 19  2  0
 18 20  1  0
 20 21  1  0
 21 24  1  0
 24 27  1  0
 27 30  1  0
 30 20  1  0
 14 15  1  0
 14 16  1  0
 14 17  1  0
 21 22  1  0
 21 23  1  0
 24 25  1  0
 24 26  1  0
 27 28  1  0
 27 29  1  0
 30 31  1  0
 30 32  1  0
M  CHG  1   8   1
M  END
>  <PDB_ID>  (55) 
pdb3ry0

>  <RESIDUE_NAME>  (55) 
HIP   PRO

>  <FRAG_NAME>  (55) 
MIMM   N1PA

>  <FRAG_ATOM_NUM>  (55) 
fragi: 13  fragj: 19

>  <atom.prop.CHAIN_ID>  (55) 
A A A A A A A A A A A A A Z Z Z Z Z Z Z Z Z Z Z Z Z Z Z Z Z Z Z

>  <atom.prop.IS_HEAVY_ATOM>  (55) 
1 0 0 0 1 1 0 1 0 1 0 1 0 1 0 0 0 1 1 1 1 0 0 1 0 0 1 0 0 1 0 0

>  <DIFUSE_FUNC_ATOM>  (55) 
n/a

>  <FINAL_SINGLE_POINT_ENERGY>  (55) 
0

>  <NONCOV_INTER_ENERGY_QM>  (55) 
0

>  <FF_Energy>  (55) 
-18.78

>  <QM_Energy>  (55) 
-26.09

>  <Index>  (55) 
728

$$$$
MIMM-pdb3s5t-A-HIP-45:N1PA-pdb3s5t-A-PRO-53
     RDKit          3D

 32 32  0  0  0  0  0  0  0  0999 V2000
   -0.5985    2.7318    0.1122 C   0  0  0  0  0  0  0  0  0  0  0  0
    0.0082    3.2246    0.7459 H   0  0  0  0  0  0  0  0  0  0  0  0
   -1.5344    2.7601    0.4808 H   0  0  0  0  0  0  0  0  0  0  0  0
   -0.5835    3.2331   -0.8556 H   0  0  0  0  0  0  0  0  0  0  0  0
   -0.1598    1.3065    0.0519 C   0  0  0  0  0  0  0  0  0  0  0  0
    1.0853    0.7865   -0.0000 C   0  0  0  0  0  0  0  0  0  0  0  0
    1.9428    1.2809   -0.0112 H   0  0  0  0  0  0  0  0  0  0  0  0
    0.9332   -0.5907   -0.0335 N   0  0  0  0  0  4  0  0  0  0  0  0
    1.6570   -1.2593   -0.0642 H   0  0  0  0  0  0  0  0  0  0  0  0
   -0.3794   -0.8450   -0.0178 C   0  0  0  0  0  0  0  0  0  0  0  0
   -0.7734   -1.7758   -0.0184 H   0  0  0  0  0  0  0  0  0  0  0  0
   -1.0853    0.2735   -0.0000 N   0  0  0  0  0  0  0  0  0  0  0  0
   -2.0570    0.3631   -0.0194 H   0  0  0  0  0  0  0  0  0  0  0  0
   -5.3959    1.0016    1.4651 C   0  0  0  0  0  0  0  0  0  0  0  0
   -6.3673    0.7417    1.5648 H   0  0  0  0  0  0  0  0  0  0  0  0
   -4.8309    0.5338    2.2714 H   0  0  0  0  0  0  0  0  0  0  0  0
   -5.3464    2.0880    1.5383 H   0  0  0  0  0  0  0  0  0  0  0  0
   -4.9083    0.5631    0.0820 C   0  0  0  0  0  0  0  0  0  0  0  0
   -3.7855    0.0942   -0.0343 O   0  0  0  0  0  0  0  0  0  0  0  0
   -5.7045    0.7770   -0.9942 N   0  0  0  0  0  0  0  0  0  0  0  0
   -5.2377    0.4161   -2.3464 C   0  0  0  0  0  0  0  0  0  0  0  0
   -5.1144   -0.5844   -2.4197 H   0  0  0  0  0  0  0  0  0  0  0  0
   -4.3216    0.9413   -2.6168 H   0  0  0  0  0  0  0  0  0  0  0  0
   -6.4183    0.8190   -3.2378 C   0  0  0  0  0  0  0  0  0  0  0  0
   -6.3136    1.7518   -3.5723 H   0  0  0  0  0  0  0  0  0  0  0  0
   -6.5201    0.1918   -4.0046 H   0  0  0  0  0  0  0  0  0  0  0  0
   -7.6271    0.7225   -2.3126 C   0  0  0  0  0  0  0  0  0  0  0  0
   -8.3714    1.2619   -2.6748 H   0  0  0  0  0  0  0  0  0  0  0  0
   -7.8870   -0.2236   -2.1988 H   0  0  0  0  0  0  0  0  0  0  0  0
   -7.0848    1.3060   -1.0438 C   0  0  0  0  0  0  0  0  0  0  0  0
   -7.0725    2.3049   -1.0707 H   0  0  0  0  0  0  0  0  0  0  0  0
   -7.6023    1.0003   -0.2441 H   0  0  0  0  0  0  0  0  0  0  0  0
  1  5  1  0
  5  6  2  0
  6  8  1  0
  8 10  2  0
 10 12  1  0
 12  5  1  0
  1  2  1  0
  1  3  1  0
  1  4  1  0
  6  7  1  0
  8  9  1  0
 10 11  1  0
 12 13  1  0
 14 18  1  0
 18 19  2  0
 18 20  1  0
 20 21  1  0
 21 24  1  0
 24 27  1  0
 27 30  1  0
 30 20  1  0
 14 15  1  0
 14 16  1  0
 14 17  1  0
 21 22  1  0
 21 23  1  0
 24 25  1  0
 24 26  1  0
 27 28  1  0
 27 29  1  0
 30 31  1  0
 30 32  1  0
M  CHG  1   8   1
M  END
>  <PDB_ID>  (56) 
pdb3s5t

>  <RESIDUE_NAME>  (56) 
HIP   PRO

>  <FRAG_NAME>  (56) 
MIMM   N1PA

>  <FRAG_ATOM_NUM>  (56) 
fragi: 13  fragj: 19

>  <atom.prop.CHAIN_ID>  (56) 
A A A A A A A A A A A A A Z Z Z Z Z Z Z Z Z Z Z Z Z Z Z Z Z Z Z

>  <atom.prop.IS_HEAVY_ATOM>  (56) 
1 0 0 0 1 1 0 1 0 1 0 1 0 1 0 0 0 1 1 1 1 0 0 1 0 0 1 0 0 1 0 0

>  <DIFUSE_FUNC_ATOM>  (56) 
n/a

>  <FINAL_SINGLE_POINT_ENERGY>  (56) 
0

>  <NONCOV_INTER_ENERGY_QM>  (56) 
0

>  <FF_Energy>  (56) 
-20.66

>  <QM_Energy>  (56) 
-26.23

>  <Index>  (56) 
732

$$$$
MIMM-pdb3tva-A-HIP-163:N1PA-pdb3tva-A-PRO-124
     RDKit          3D

 32 32  0  0  0  0  0  0  0  0999 V2000
   -0.6566    2.7525   -0.0022 C   0  0  0  0  0  0  0  0  0  0  0  0
   -0.9797    2.9845    0.9258 H   0  0  0  0  0  0  0  0  0  0  0  0
   -1.4438    2.8255   -0.6313 H   0  0  0  0  0  0  0  0  0  0  0  0
    0.0982    3.4796   -0.3019 H   0  0  0  0  0  0  0  0  0  0  0  0
   -0.1942    1.3225    0.0054 C   0  0  0  0  0  0  0  0  0  0  0  0
    1.0558    0.7989    0.0000 C   0  0  0  0  0  0  0  0  0  0  0  0
    1.9115    1.3118   -0.0047 H   0  0  0  0  0  0  0  0  0  0  0  0
    0.9274   -0.5677    0.0036 N   0  0  0  0  0  4  0  0  0  0  0  0
    1.6848   -1.2244    0.0095 H   0  0  0  0  0  0  0  0  0  0  0  0
   -0.3554   -0.8774   -0.0038 C   0  0  0  0  0  0  0  0  0  0  0  0
   -0.7332   -1.7986   -0.0090 H   0  0  0  0  0  0  0  0  0  0  0  0
   -1.0558    0.2449   -0.0000 N   0  0  0  0  0  0  0  0  0  0  0  0
   -2.0537    0.3056   -0.0021 H   0  0  0  0  0  0  0  0  0  0  0  0
   -1.2694   -3.6440   -3.4104 C   0  0  0  0  0  0  0  0  0  0  0  0
   -0.8583   -4.3501   -3.9848 H   0  0  0  0  0  0  0  0  0  0  0  0
   -2.3521   -3.6952   -3.5258 H   0  0  0  0  0  0  0  0  0  0  0  0
   -0.8797   -2.6645   -3.6873 H   0  0  0  0  0  0  0  0  0  0  0  0
   -0.9120   -3.9515   -1.9570 C   0  0  0  0  0  0  0  0  0  0  0  0
   -1.4171   -3.3038   -1.0454 O   0  0  0  0  0  0  0  0  0  0  0  0
   -0.0679   -4.9677   -1.7423 N   0  0  0  0  0  0  0  0  0  0  0  0
    0.3761   -5.4076   -0.4099 C   0  0  0  0  0  0  0  0  0  0  0  0
   -0.4124   -5.7047    0.1459 H   0  0  0  0  0  0  0  0  0  0  0  0
    0.9401   -4.6300    0.1054 H   0  0  0  0  0  0  0  0  0  0  0  0
    1.3270   -6.5670   -0.7218 C   0  0  0  0  0  0  0  0  0  0  0  0
    2.2873   -6.2666   -0.6314 H   0  0  0  0  0  0  0  0  0  0  0  0
    1.1778   -7.3273   -0.0746 H   0  0  0  0  0  0  0  0  0  0  0  0
    1.0215   -6.9768   -2.1110 C   0  0  0  0  0  0  0  0  0  0  0  0
    1.8471   -7.3566   -2.5591 H   0  0  0  0  0  0  0  0  0  0  0  0
    0.3136   -7.7026   -2.1197 H   0  0  0  0  0  0  0  0  0  0  0  0
    0.5436   -5.7584   -2.8195 C   0  0  0  0  0  0  0  0  0  0  0  0
    1.2976   -5.2513   -3.2399 H   0  0  0  0  0  0  0  0  0  0  0  0
   -0.1372   -5.9776   -3.5215 H   0  0  0  0  0  0  0  0  0  0  0  0
  1  5  1  0
  5  6  2  0
  6  8  1  0
  8 10  2  0
 10 12  1  0
 12  5  1  0
  1  2  1  0
  1  3  1  0
  1  4  1  0
  6  7  1  0
  8  9  1  0
 10 11  1  0
 12 13  1  0
 14 18  1  0
 18 19  2  0
 18 20  1  0
 20 21  1  0
 21 24  1  0
 24 27  1  0
 27 30  1  0
 30 20  1  0
 14 15  1  0
 14 16  1  0
 14 17  1  0
 21 22  1  0
 21 23  1  0
 24 25  1  0
 24 26  1  0
 27 28  1  0
 27 29  1  0
 30 31  1  0
 30 32  1  0
M  CHG  1   8   1
M  END
>  <PDB_ID>  (57) 
pdb3tva

>  <RESIDUE_NAME>  (57) 
HIP   PRO

>  <FRAG_NAME>  (57) 
MIMM   N1PA

>  <FRAG_ATOM_NUM>  (57) 
fragi: 13  fragj: 19

>  <atom.prop.CHAIN_ID>  (57) 
A A A A A A A A A A A A A Z Z Z Z Z Z Z Z Z Z Z Z Z Z Z Z Z Z Z

>  <atom.prop.IS_HEAVY_ATOM>  (57) 
1 0 0 0 1 1 0 1 0 1 0 1 0 1 0 0 0 1 1 1 1 0 0 1 0 0 1 0 0 1 0 0

>  <DIFUSE_FUNC_ATOM>  (57) 
n/a

>  <FINAL_SINGLE_POINT_ENERGY>  (57) 
0

>  <NONCOV_INTER_ENERGY_QM>  (57) 
0

>  <FF_Energy>  (57) 
-6.79

>  <QM_Energy>  (57) 
-17.36

>  <Index>  (57) 
770

$$$$
MIMM-pdb4u4i-A-HIP-51:N1PA-pdb4u4i-A-PRO-48
     RDKit          3D

 32 32  0  0  0  0  0  0  0  0999 V2000
   -0.6742    2.7418   -0.0152 C   0  0  0  0  0  0  0  0  0  0  0  0
    0.0949    3.3377    0.2424 H   0  0  0  0  0  0  0  0  0  0  0  0
   -1.3955    2.8353    0.6815 H   0  0  0  0  0  0  0  0  0  0  0  0
   -1.0694    3.0744   -0.9750 H   0  0  0  0  0  0  0  0  0  0  0  0
   -0.1945    1.3217   -0.0100 C   0  0  0  0  0  0  0  0  0  0  0  0
    1.0563    0.8006   -0.0000 C   0  0  0  0  0  0  0  0  0  0  0  0
    1.9114    1.3124    0.0056 H   0  0  0  0  0  0  0  0  0  0  0  0
    0.9285   -0.5693    0.0025 N   0  0  0  0  0  4  0  0  0  0  0  0
    1.6852   -1.2241    0.0022 H   0  0  0  0  0  0  0  0  0  0  0  0
   -0.3565   -0.8772    0.0034 C   0  0  0  0  0  0  0  0  0  0  0  0
   -0.7340   -1.7988    0.0075 H   0  0  0  0  0  0  0  0  0  0  0  0
   -1.0563    0.2459    0.0000 N   0  0  0  0  0  0  0  0  0  0  0  0
   -2.0546    0.3065    0.0032 H   0  0  0  0  0  0  0  0  0  0  0  0
    2.8822   -3.9256    1.7686 C   0  0  0  0  0  0  0  0  0  0  0  0
    3.3579   -4.8146    1.7978 H   0  0  0  0  0  0  0  0  0  0  0  0
    2.9256   -3.4334    2.7402 H   0  0  0  0  0  0  0  0  0  0  0  0
    1.8155   -4.0766    1.6032 H   0  0  0  0  0  0  0  0  0  0  0  0
    3.4608   -3.0413    0.6621 C   0  0  0  0  0  0  0  0  0  0  0  0
    3.0743   -1.8767    0.5613 O   0  0  0  0  0  0  0  0  0  0  0  0
    4.3602   -3.5876   -0.1706 N   0  0  0  0  0  0  0  0  0  0  0  0
    4.9594   -2.8019   -1.2574 C   0  0  0  0  0  0  0  0  0  0  0  0
    5.5101   -2.0386   -0.8818 H   0  0  0  0  0  0  0  0  0  0  0  0
    4.2193   -2.4273   -1.9647 H   0  0  0  0  0  0  0  0  0  0  0  0
    5.9044   -3.8034   -1.9379 C   0  0  0  0  0  0  0  0  0  0  0  0
    5.4689   -4.1899   -2.7598 H   0  0  0  0  0  0  0  0  0  0  0  0
    6.7554   -3.3450   -2.2174 H   0  0  0  0  0  0  0  0  0  0  0  0
    6.1607   -4.8462   -0.9220 C   0  0  0  0  0  0  0  0  0  0  0  0
    6.3794   -5.7295   -1.3595 H   0  0  0  0  0  0  0  0  0  0  0  0
    6.9387   -4.5903   -0.3323 H   0  0  0  0  0  0  0  0  0  0  0  0
    4.8980   -4.9554   -0.1129 C   0  0  0  0  0  0  0  0  0  0  0  0
    4.2576   -5.6022   -0.5204 H   0  0  0  0  0  0  0  0  0  0  0  0
    5.0892   -5.2194    0.8312 H   0  0  0  0  0  0  0  0  0  0  0  0
  1  5  1  0
  5  6  2  0
  6  8  1  0
  8 10  2  0
 10 12  1  0
 12  5  1  0
  1  2  1  0
  1  3  1  0
  1  4  1  0
  6  7  1  0
  8  9  1  0
 10 11  1  0
 12 13  1  0
 14 18  1  0
 18 19  2  0
 18 20  1  0
 20 21  1  0
 21 24  1  0
 24 27  1  0
 27 30  1  0
 30 20  1  0
 14 15  1  0
 14 16  1  0
 14 17  1  0
 21 22  1  0
 21 23  1  0
 24 25  1  0
 24 26  1  0
 27 28  1  0
 27 29  1  0
 30 31  1  0
 30 32  1  0
M  CHG  1   8   1
M  END
>  <PDB_ID>  (58) 
pdb4u4i

>  <RESIDUE_NAME>  (58) 
HIP   PRO

>  <FRAG_NAME>  (58) 
MIMM   N1PA

>  <FRAG_ATOM_NUM>  (58) 
fragi: 13  fragj: 19

>  <atom.prop.CHAIN_ID>  (58) 
A A A A A A A A A A A A A Z Z Z Z Z Z Z Z Z Z Z Z Z Z Z Z Z Z Z

>  <atom.prop.IS_HEAVY_ATOM>  (58) 
1 0 0 0 1 1 0 1 0 1 0 1 0 1 0 0 0 1 1 1 1 0 0 1 0 0 1 0 0 1 0 0

>  <DIFUSE_FUNC_ATOM>  (58) 
n/a

>  <FINAL_SINGLE_POINT_ENERGY>  (58) 
0

>  <NONCOV_INTER_ENERGY_QM>  (58) 
0

>  <FF_Energy>  (58) 
-16.31

>  <QM_Energy>  (58) 
-24.65

>  <Index>  (58) 
783

$$$$
MIMM-pdb4w78-B-HIP-117:N1PA-pdb4w78-B-PRO-83
     RDKit          3D

 32 32  0  0  0  0  0  0  0  0999 V2000
   -0.6693    2.7386    0.0186 C   0  0  0  0  0  0  0  0  0  0  0  0
   -1.1914    2.9074   -0.8247 H   0  0  0  0  0  0  0  0  0  0  0  0
    0.1372    3.3406    0.0188 H   0  0  0  0  0  0  0  0  0  0  0  0
   -1.2937    2.9790    0.8791 H   0  0  0  0  0  0  0  0  0  0  0  0
   -0.1923    1.3190   -0.0017 C   0  0  0  0  0  0  0  0  0  0  0  0
    1.0580    0.7995    0.0000 C   0  0  0  0  0  0  0  0  0  0  0  0
    1.9124    1.3106    0.0055 H   0  0  0  0  0  0  0  0  0  0  0  0
    0.9281   -0.5689   -0.0053 N   0  0  0  0  0  4  0  0  0  0  0  0
    1.6841   -1.2258   -0.0141 H   0  0  0  0  0  0  0  0  0  0  0  0
   -0.3575   -0.8767    0.0012 C   0  0  0  0  0  0  0  0  0  0  0  0
   -0.7358   -1.7975    0.0070 H   0  0  0  0  0  0  0  0  0  0  0  0
   -1.0580    0.2479    0.0000 N   0  0  0  0  0  0  0  0  0  0  0  0
   -2.0543    0.3091   -0.0001 H   0  0  0  0  0  0  0  0  0  0  0  0
   -5.8469    1.7793    0.7342 C   0  0  0  0  0  0  0  0  0  0  0  0
   -6.7056    1.2952    0.9263 H   0  0  0  0  0  0  0  0  0  0  0  0
   -5.3835    2.0412    1.6854 H   0  0  0  0  0  0  0  0  0  0  0  0
   -6.0706    2.6702    0.1475 H   0  0  0  0  0  0  0  0  0  0  0  0
   -4.9431    0.8347   -0.0586 C   0  0  0  0  0  0  0  0  0  0  0  0
   -3.7208    0.7990    0.1622 O   0  0  0  0  0  0  0  0  0  0  0  0
   -5.5300    0.0426   -0.9706 N   0  0  0  0  0  0  0  0  0  0  0  0
   -4.6872   -0.8836   -1.7403 C   0  0  0  0  0  0  0  0  0  0  0  0
   -4.1689   -1.4943   -1.1084 H   0  0  0  0  0  0  0  0  0  0  0  0
   -4.0112   -0.3891   -2.4378 H   0  0  0  0  0  0  0  0  0  0  0  0
   -5.7041   -1.7197   -2.5389 C   0  0  0  0  0  0  0  0  0  0  0  0
   -5.7497   -1.3983   -3.4907 H   0  0  0  0  0  0  0  0  0  0  0  0
   -5.4363   -2.6881   -2.5398 H   0  0  0  0  0  0  0  0  0  0  0  0
   -7.0071   -1.5212   -1.8422 C   0  0  0  0  0  0  0  0  0  0  0  0
   -7.7717   -1.6204   -2.4913 H   0  0  0  0  0  0  0  0  0  0  0  0
   -7.1228   -2.2063   -1.1119 H   0  0  0  0  0  0  0  0  0  0  0  0
   -6.9587   -0.1370   -1.2778 C   0  0  0  0  0  0  0  0  0  0  0  0
   -7.2616    0.5446   -1.9436 H   0  0  0  0  0  0  0  0  0  0  0  0
   -7.5088   -0.0567   -0.4456 H   0  0  0  0  0  0  0  0  0  0  0  0
  1  5  1  0
  5  6  2  0
  6  8  1  0
  8 10  2  0
 10 12  1  0
 12  5  1  0
  1  2  1  0
  1  3  1  0
  1  4  1  0
  6  7  1  0
  8  9  1  0
 10 11  1  0
 12 13  1  0
 14 18  1  0
 18 19  2  0
 18 20  1  0
 20 21  1  0
 21 24  1  0
 24 27  1  0
 27 30  1  0
 30 20  1  0
 14 15  1  0
 14 16  1  0
 14 17  1  0
 21 22  1  0
 21 23  1  0
 24 25  1  0
 24 26  1  0
 27 28  1  0
 27 29  1  0
 30 31  1  0
 30 32  1  0
M  CHG  1   8   1
M  END
>  <PDB_ID>  (59) 
pdb4w78

>  <RESIDUE_NAME>  (59) 
HIP   PRO

>  <FRAG_NAME>  (59) 
MIMM   N1PA

>  <FRAG_ATOM_NUM>  (59) 
fragi: 13  fragj: 19

>  <atom.prop.CHAIN_ID>  (59) 
A A A A A A A A A A A A A Z Z Z Z Z Z Z Z Z Z Z Z Z Z Z Z Z Z Z

>  <atom.prop.IS_HEAVY_ATOM>  (59) 
1 0 0 0 1 1 0 1 0 1 0 1 0 1 0 0 0 1 1 1 1 0 0 1 0 0 1 0 0 1 0 0

>  <DIFUSE_FUNC_ATOM>  (59) 
n/a

>  <FINAL_SINGLE_POINT_ENERGY>  (59) 
0

>  <NONCOV_INTER_ENERGY_QM>  (59) 
0

>  <FF_Energy>  (59) 
-20.8

>  <QM_Energy>  (59) 
-27.03

>  <Index>  (59) 
790

$$$$
MIMM-pdb4z29-B-HIP-195:N1PA-pdb4z29-B-PRO-192
     RDKit          3D

 32 32  0  0  0  0  0  0  0  0999 V2000
   -0.6789    2.7221    0.0398 C   0  0  0  0  0  0  0  0  0  0  0  0
    0.0490    3.3035    0.4195 H   0  0  0  0  0  0  0  0  0  0  0  0
   -1.4791    2.7763    0.6469 H   0  0  0  0  0  0  0  0  0  0  0  0
   -0.9482    3.0710   -0.9571 H   0  0  0  0  0  0  0  0  0  0  0  0
   -0.1942    1.3157    0.0414 C   0  0  0  0  0  0  0  0  0  0  0  0
    1.0544    0.8028    0.0000 C   0  0  0  0  0  0  0  0  0  0  0  0
    1.9084    1.3156   -0.0116 H   0  0  0  0  0  0  0  0  0  0  0  0
    0.9263   -0.5647   -0.0215 N   0  0  0  0  0  4  0  0  0  0  0  0
    1.6845   -1.2201   -0.0398 H   0  0  0  0  0  0  0  0  0  0  0  0
   -0.3569   -0.8756   -0.0154 C   0  0  0  0  0  0  0  0  0  0  0  0
   -0.7321   -1.7978   -0.0199 H   0  0  0  0  0  0  0  0  0  0  0  0
   -1.0544    0.2440    0.0000 N   0  0  0  0  0  0  0  0  0  0  0  0
   -2.0529    0.3062   -0.0166 H   0  0  0  0  0  0  0  0  0  0  0  0
    2.3516   -4.2596    1.3287 C   0  0  0  0  0  0  0  0  0  0  0  0
    2.9225   -4.9916    1.6971 H   0  0  0  0  0  0  0  0  0  0  0  0
    1.9546   -3.6764    2.1595 H   0  0  0  0  0  0  0  0  0  0  0  0
    1.5678   -4.6519    0.6806 H   0  0  0  0  0  0  0  0  0  0  0  0
    3.2202   -3.3560    0.4674 C   0  0  0  0  0  0  0  0  0  0  0  0
    2.8969   -2.1926    0.2987 O   0  0  0  0  0  0  0  0  0  0  0  0
    4.3214   -3.8885   -0.0895 N   0  0  0  0  0  0  0  0  0  0  0  0
    5.2000   -3.1050   -0.9478 C   0  0  0  0  0  0  0  0  0  0  0  0
    5.6991   -2.4027   -0.4123 H   0  0  0  0  0  0  0  0  0  0  0  0
    4.6718   -2.6361   -1.7781 H   0  0  0  0  0  0  0  0  0  0  0  0
    6.2048   -4.1454   -1.4482 C   0  0  0  0  0  0  0  0  0  0  0  0
    5.8794   -4.5755   -2.2906 H   0  0  0  0  0  0  0  0  0  0  0  0
    7.0969   -3.7270   -1.6111 H   0  0  0  0  0  0  0  0  0  0  0  0
    6.2751   -5.1400   -0.3320 C   0  0  0  0  0  0  0  0  0  0  0  0
    6.6195   -6.0126   -0.6628 H   0  0  0  0  0  0  0  0  0  0  0  0
    6.8504   -4.7981    0.4032 H   0  0  0  0  0  0  0  0  0  0  0  0
    4.8459   -5.2475    0.0995 C   0  0  0  0  0  0  0  0  0  0  0  0
    4.3376   -5.9016   -0.4661 H   0  0  0  0  0  0  0  0  0  0  0  0
    4.7702   -5.5231    1.0621 H   0  0  0  0  0  0  0  0  0  0  0  0
  1  5  1  0
  5  6  2  0
  6  8  1  0
  8 10  2  0
 10 12  1  0
 12  5  1  0
  1  2  1  0
  1  3  1  0
  1  4  1  0
  6  7  1  0
  8  9  1  0
 10 11  1  0
 12 13  1  0
 14 18  1  0
 18 19  2  0
 18 20  1  0
 20 21  1  0
 21 24  1  0
 24 27  1  0
 27 30  1  0
 30 20  1  0
 14 15  1  0
 14 16  1  0
 14 17  1  0
 21 22  1  0
 21 23  1  0
 24 25  1  0
 24 26  1  0
 27 28  1  0
 27 29  1  0
 30 31  1  0
 30 32  1  0
M  CHG  1   8   1
M  END
>  <PDB_ID>  (60) 
pdb4z29

>  <RESIDUE_NAME>  (60) 
HIP   PRO

>  <FRAG_NAME>  (60) 
MIMM   N1PA

>  <FRAG_ATOM_NUM>  (60) 
fragi: 13  fragj: 19

>  <atom.prop.CHAIN_ID>  (60) 
A A A A A A A A A A A A A Z Z Z Z Z Z Z Z Z Z Z Z Z Z Z Z Z Z Z

>  <atom.prop.IS_HEAVY_ATOM>  (60) 
1 0 0 0 1 1 0 1 0 1 0 1 0 1 0 0 0 1 1 1 1 0 0 1 0 0 1 0 0 1 0 0

>  <DIFUSE_FUNC_ATOM>  (60) 
n/a

>  <FINAL_SINGLE_POINT_ENERGY>  (60) 
0

>  <NONCOV_INTER_ENERGY_QM>  (60) 
0

>  <FF_Energy>  (60) 
-16.96

>  <QM_Energy>  (60) 
-25.8

>  <Index>  (60) 
828

$$$$
MIMM-pdb5ayd-A-HIP-78:N1PA-pdb5ayd-A-PRO-92
     RDKit          3D

 32 32  0  0  0  0  0  0  0  0999 V2000
   -0.6763    2.7447    0.0152 C   0  0  0  0  0  0  0  0  0  0  0  0
   -0.6384    3.0790    0.9636 H   0  0  0  0  0  0  0  0  0  0  0  0
   -1.6358    2.7539   -0.2872 H   0  0  0  0  0  0  0  0  0  0  0  0
   -0.1019    3.4195   -0.6194 H   0  0  0  0  0  0  0  0  0  0  0  0
   -0.1919    1.3209   -0.0022 C   0  0  0  0  0  0  0  0  0  0  0  0
    1.0549    0.8028   -0.0000 C   0  0  0  0  0  0  0  0  0  0  0  0
    1.9114    1.3110    0.0040 H   0  0  0  0  0  0  0  0  0  0  0  0
    0.9263   -0.5698   -0.0028 N   0  0  0  0  0  4  0  0  0  0  0  0
    1.6846   -1.2225   -0.0082 H   0  0  0  0  0  0  0  0  0  0  0  0
   -0.3550   -0.8753    0.0008 C   0  0  0  0  0  0  0  0  0  0  0  0
   -0.7344   -1.7983    0.0050 H   0  0  0  0  0  0  0  0  0  0  0  0
   -1.0549    0.2444   -0.0000 N   0  0  0  0  0  0  0  0  0  0  0  0
   -2.0526    0.3067   -0.0002 H   0  0  0  0  0  0  0  0  0  0  0  0
   -5.4729    1.8986   -1.5699 C   0  0  0  0  0  0  0  0  0  0  0  0
   -6.4154    1.6414   -1.8046 H   0  0  0  0  0  0  0  0  0  0  0  0
   -5.5310    2.6709   -0.8029 H   0  0  0  0  0  0  0  0  0  0  0  0
   -4.9391    2.2455   -2.4546 H   0  0  0  0  0  0  0  0  0  0  0  0
   -4.7910    0.6496   -1.0257 C   0  0  0  0  0  0  0  0  0  0  0  0
   -3.7703    0.7467   -0.3440 O   0  0  0  0  0  0  0  0  0  0  0  0
   -5.3489   -0.5322   -1.3347 N   0  0  0  0  0  0  0  0  0  0  0  0
   -4.8156   -1.7915   -0.8114 C   0  0  0  0  0  0  0  0  0  0  0  0
   -4.7844   -1.7733    0.1975 H   0  0  0  0  0  0  0  0  0  0  0  0
   -3.8314   -2.0139   -1.2237 H   0  0  0  0  0  0  0  0  0  0  0  0
   -5.8405   -2.8369   -1.2748 C   0  0  0  0  0  0  0  0  0  0  0  0
   -5.4416   -3.4425   -1.9710 H   0  0  0  0  0  0  0  0  0  0  0  0
   -6.1519   -3.3982   -0.5021 H   0  0  0  0  0  0  0  0  0  0  0  0
   -6.9942   -2.0503   -1.8565 C   0  0  0  0  0  0  0  0  0  0  0  0
   -7.4070   -2.5667   -2.6174 H   0  0  0  0  0  0  0  0  0  0  0  0
   -7.7002   -1.9117   -1.1505 H   0  0  0  0  0  0  0  0  0  0  0  0
   -6.4200   -0.7623   -2.3169 C   0  0  0  0  0  0  0  0  0  0  0  0
   -6.0391   -0.8286   -3.2368 H   0  0  0  0  0  0  0  0  0  0  0  0
   -7.0878   -0.0200   -2.2832 H   0  0  0  0  0  0  0  0  0  0  0  0
  1  5  1  0
  5  6  2  0
  6  8  1  0
  8 10  2  0
 10 12  1  0
 12  5  1  0
  1  2  1  0
  1  3  1  0
  1  4  1  0
  6  7  1  0
  8  9  1  0
 10 11  1  0
 12 13  1  0
 14 18  1  0
 18 19  2  0
 18 20  1  0
 20 21  1  0
 21 24  1  0
 24 27  1  0
 27 30  1  0
 30 20  1  0
 14 15  1  0
 14 16  1  0
 14 17  1  0
 21 22  1  0
 21 23  1  0
 24 25  1  0
 24 26  1  0
 27 28  1  0
 27 29  1  0
 30 31  1  0
 30 32  1  0
M  CHG  1   8   1
M  END
>  <PDB_ID>  (61) 
pdb5ayd

>  <RESIDUE_NAME>  (61) 
HIP   PRO

>  <FRAG_NAME>  (61) 
MIMM   N1PA

>  <FRAG_ATOM_NUM>  (61) 
fragi: 13  fragj: 19

>  <atom.prop.CHAIN_ID>  (61) 
A A A A A A A A A A A A A Z Z Z Z Z Z Z Z Z Z Z Z Z Z Z Z Z Z Z

>  <atom.prop.IS_HEAVY_ATOM>  (61) 
1 0 0 0 1 1 0 1 0 1 0 1 0 1 0 0 0 1 1 1 1 0 0 1 0 0 1 0 0 1 0 0

>  <DIFUSE_FUNC_ATOM>  (61) 
n/a

>  <FINAL_SINGLE_POINT_ENERGY>  (61) 
0

>  <NONCOV_INTER_ENERGY_QM>  (61) 
0

>  <FF_Energy>  (61) 
-20.49

>  <QM_Energy>  (61) 
-26.23

>  <Index>  (61) 
859

$$$$
MIMM-pdb5ayd-B-HIP-78:N1PA-pdb5ayd-B-PRO-92
     RDKit          3D

 32 32  0  0  0  0  0  0  0  0999 V2000
   -0.6807    2.7380    0.0072 C   0  0  0  0  0  0  0  0  0  0  0  0
   -0.4935    3.1287    0.9180 H   0  0  0  0  0  0  0  0  0  0  0  0
   -1.6802    2.7331   -0.1307 H   0  0  0  0  0  0  0  0  0  0  0  0
   -0.2294    3.3825   -0.7473 H   0  0  0  0  0  0  0  0  0  0  0  0
   -0.1951    1.3221   -0.0090 C   0  0  0  0  0  0  0  0  0  0  0  0
    1.0571    0.8016   -0.0000 C   0  0  0  0  0  0  0  0  0  0  0  0
    1.9112    1.3135    0.0058 H   0  0  0  0  0  0  0  0  0  0  0  0
    0.9280   -0.5672    0.0010 N   0  0  0  0  0  4  0  0  0  0  0  0
    1.6846   -1.2234   -0.0003 H   0  0  0  0  0  0  0  0  0  0  0  0
   -0.3578   -0.8778    0.0030 C   0  0  0  0  0  0  0  0  0  0  0  0
   -0.7329   -1.7997    0.0080 H   0  0  0  0  0  0  0  0  0  0  0  0
   -1.0571    0.2432    0.0000 N   0  0  0  0  0  0  0  0  0  0  0  0
   -2.0548    0.3047    0.0027 H   0  0  0  0  0  0  0  0  0  0  0  0
   -5.5442    1.6298   -1.1914 C   0  0  0  0  0  0  0  0  0  0  0  0
   -6.4908    1.3583   -1.3757 H   0  0  0  0  0  0  0  0  0  0  0  0
   -5.5762    2.4450   -0.4684 H   0  0  0  0  0  0  0  0  0  0  0  0
   -5.0354    1.9239   -2.1094 H   0  0  0  0  0  0  0  0  0  0  0  0
   -4.8469    0.4278   -0.5740 C   0  0  0  0  0  0  0  0  0  0  0  0
   -3.8215    0.5818    0.0930 O   0  0  0  0  0  0  0  0  0  0  0  0
   -5.4165   -0.7707   -0.7745 N   0  0  0  0  0  0  0  0  0  0  0  0
   -4.8255   -2.0101   -0.2437 C   0  0  0  0  0  0  0  0  0  0  0  0
   -4.7437   -1.9594    0.7617 H   0  0  0  0  0  0  0  0  0  0  0  0
   -3.8602   -2.2265   -0.7015 H   0  0  0  0  0  0  0  0  0  0  0  0
   -5.8485   -3.1028   -0.6193 C   0  0  0  0  0  0  0  0  0  0  0  0
   -5.4770   -3.6977   -1.3426 H   0  0  0  0  0  0  0  0  0  0  0  0
   -6.0638   -3.6733    0.1814 H   0  0  0  0  0  0  0  0  0  0  0  0
   -7.0762   -2.3782   -1.1040 C   0  0  0  0  0  0  0  0  0  0  0  0
   -7.5102   -2.8936   -1.8575 H   0  0  0  0  0  0  0  0  0  0  0  0
   -7.7502   -2.2979   -0.3561 H   0  0  0  0  0  0  0  0  0  0  0  0
   -6.6311   -1.0147   -1.5740 C   0  0  0  0  0  0  0  0  0  0  0  0
   -6.4156   -1.0178   -2.5476 H   0  0  0  0  0  0  0  0  0  0  0  0
   -7.3226   -0.3198   -1.3842 H   0  0  0  0  0  0  0  0  0  0  0  0
  1  5  1  0
  5  6  2  0
  6  8  1  0
  8 10  2  0
 10 12  1  0
 12  5  1  0
  1  2  1  0
  1  3  1  0
  1  4  1  0
  6  7  1  0
  8  9  1  0
 10 11  1  0
 12 13  1  0
 14 18  1  0
 18 19  2  0
 18 20  1  0
 20 21  1  0
 21 24  1  0
 24 27  1  0
 27 30  1  0
 30 20  1  0
 14 15  1  0
 14 16  1  0
 14 17  1  0
 21 22  1  0
 21 23  1  0
 24 25  1  0
 24 26  1  0
 27 28  1  0
 27 29  1  0
 30 31  1  0
 30 32  1  0
M  CHG  1   8   1
M  END
>  <PDB_ID>  (62) 
pdb5ayd

>  <RESIDUE_NAME>  (62) 
HIP   PRO

>  <FRAG_NAME>  (62) 
MIMM   N1PA

>  <FRAG_ATOM_NUM>  (62) 
fragi: 13  fragj: 19

>  <atom.prop.CHAIN_ID>  (62) 
A A A A A A A A A A A A A Z Z Z Z Z Z Z Z Z Z Z Z Z Z Z Z Z Z Z

>  <atom.prop.IS_HEAVY_ATOM>  (62) 
1 0 0 0 1 1 0 1 0 1 0 1 0 1 0 0 0 1 1 1 1 0 0 1 0 0 1 0 0 1 0 0

>  <DIFUSE_FUNC_ATOM>  (62) 
n/a

>  <FINAL_SINGLE_POINT_ENERGY>  (62) 
0

>  <NONCOV_INTER_ENERGY_QM>  (62) 
0

>  <FF_Energy>  (62) 
-20.15

>  <QM_Energy>  (62) 
-26.24

>  <Index>  (62) 
860

$$$$
MIMM-pdb5ayd-C-HIP-78:N1PA-pdb5ayd-C-PRO-92
     RDKit          3D

 32 32  0  0  0  0  0  0  0  0999 V2000
   -0.6827    2.7451    0.0049 C   0  0  0  0  0  0  0  0  0  0  0  0
   -0.5698    3.1009    0.9427 H   0  0  0  0  0  0  0  0  0  0  0  0
   -1.6694    2.7405   -0.2098 H   0  0  0  0  0  0  0  0  0  0  0  0
   -0.1766    3.4163   -0.6889 H   0  0  0  0  0  0  0  0  0  0  0  0
   -0.1923    1.3233   -0.0191 C   0  0  0  0  0  0  0  0  0  0  0  0
    1.0559    0.8023    0.0000 C   0  0  0  0  0  0  0  0  0  0  0  0
    1.9121    1.3115    0.0047 H   0  0  0  0  0  0  0  0  0  0  0  0
    0.9275   -0.5704    0.0134 N   0  0  0  0  0  4  0  0  0  0  0  0
    1.6838   -1.2235    0.0259 H   0  0  0  0  0  0  0  0  0  0  0  0
   -0.3581   -0.8775    0.0056 C   0  0  0  0  0  0  0  0  0  0  0  0
   -0.7351   -1.7997    0.0058 H   0  0  0  0  0  0  0  0  0  0  0  0
   -1.0559    0.2444   -0.0000 N   0  0  0  0  0  0  0  0  0  0  0  0
   -2.0532    0.3077    0.0080 H   0  0  0  0  0  0  0  0  0  0  0  0
   -5.5218    1.9910   -0.8180 C   0  0  0  0  0  0  0  0  0  0  0  0
   -6.4810    1.7359   -1.0044 H   0  0  0  0  0  0  0  0  0  0  0  0
   -5.5386    2.7804   -0.0666 H   0  0  0  0  0  0  0  0  0  0  0  0
   -5.0366    2.3386   -1.7301 H   0  0  0  0  0  0  0  0  0  0  0  0
   -4.8194    0.7351   -0.3097 C   0  0  0  0  0  0  0  0  0  0  0  0
   -3.7653    0.8121    0.3240 O   0  0  0  0  0  0  0  0  0  0  0  0
   -5.4041   -0.4349   -0.5824 N   0  0  0  0  0  0  0  0  0  0  0  0
   -4.8308   -1.6988   -0.1126 C   0  0  0  0  0  0  0  0  0  0  0  0
   -4.6484   -1.6569    0.8821 H   0  0  0  0  0  0  0  0  0  0  0  0
   -3.9283   -1.9673   -0.6615 H   0  0  0  0  0  0  0  0  0  0  0  0
   -5.9365   -2.7296   -0.3912 C   0  0  0  0  0  0  0  0  0  0  0  0
   -5.6467   -3.3722   -1.1116 H   0  0  0  0  0  0  0  0  0  0  0  0
   -6.1418   -3.2605    0.4401 H   0  0  0  0  0  0  0  0  0  0  0  0
   -7.1357   -1.9431   -0.8310 C   0  0  0  0  0  0  0  0  0  0  0  0
   -7.6395   -2.4526   -1.5486 H   0  0  0  0  0  0  0  0  0  0  0  0
   -7.7716   -1.8175   -0.0503 H   0  0  0  0  0  0  0  0  0  0  0  0
   -6.6458   -0.6353   -1.3427 C   0  0  0  0  0  0  0  0  0  0  0  0
   -6.4529   -0.6669   -2.3235 H   0  0  0  0  0  0  0  0  0  0  0  0
   -7.2939    0.1057   -1.1562 H   0  0  0  0  0  0  0  0  0  0  0  0
  1  5  1  0
  5  6  2  0
  6  8  1  0
  8 10  2  0
 10 12  1  0
 12  5  1  0
  1  2  1  0
  1  3  1  0
  1  4  1  0
  6  7  1  0
  8  9  1  0
 10 11  1  0
 12 13  1  0
 14 18  1  0
 18 19  2  0
 18 20  1  0
 20 21  1  0
 21 24  1  0
 24 27  1  0
 27 30  1  0
 30 20  1  0
 14 15  1  0
 14 16  1  0
 14 17  1  0
 21 22  1  0
 21 23  1  0
 24 25  1  0
 24 26  1  0
 27 28  1  0
 27 29  1  0
 30 31  1  0
 30 32  1  0
M  CHG  1   8   1
M  END
>  <PDB_ID>  (63) 
pdb5ayd

>  <RESIDUE_NAME>  (63) 
HIP   PRO

>  <FRAG_NAME>  (63) 
MIMM   N1PA

>  <FRAG_ATOM_NUM>  (63) 
fragi: 13  fragj: 19

>  <atom.prop.CHAIN_ID>  (63) 
A A A A A A A A A A A A A Z Z Z Z Z Z Z Z Z Z Z Z Z Z Z Z Z Z Z

>  <atom.prop.IS_HEAVY_ATOM>  (63) 
1 0 0 0 1 1 0 1 0 1 0 1 0 1 0 0 0 1 1 1 1 0 0 1 0 0 1 0 0 1 0 0

>  <DIFUSE_FUNC_ATOM>  (63) 
n/a

>  <FINAL_SINGLE_POINT_ENERGY>  (63) 
0

>  <NONCOV_INTER_ENERGY_QM>  (63) 
0

>  <FF_Energy>  (63) 
-19.66

>  <QM_Energy>  (63) 
-25.89

>  <Index>  (63) 
861

$$$$
MIMM-pdb5ayd-D-HIP-78:N1PA-pdb5ayd-D-PRO-92
     RDKit          3D

 32 32  0  0  0  0  0  0  0  0999 V2000
   -0.6844    2.7413   -0.0100 C   0  0  0  0  0  0  0  0  0  0  0  0
   -0.7205    3.0593    0.9465 H   0  0  0  0  0  0  0  0  0  0  0  0
   -1.6224    2.7544   -0.3809 H   0  0  0  0  0  0  0  0  0  0  0  0
   -0.0689    3.4315   -0.5870 H   0  0  0  0  0  0  0  0  0  0  0  0
   -0.1977    1.3218   -0.0152 C   0  0  0  0  0  0  0  0  0  0  0  0
    1.0557    0.7995    0.0000 C   0  0  0  0  0  0  0  0  0  0  0  0
    1.9090    1.3146    0.0089 H   0  0  0  0  0  0  0  0  0  0  0  0
    0.9284   -0.5659    0.0021 N   0  0  0  0  0  4  0  0  0  0  0  0
    1.6858   -1.2226    0.0001 H   0  0  0  0  0  0  0  0  0  0  0  0
   -0.3562   -0.8774    0.0058 C   0  0  0  0  0  0  0  0  0  0  0  0
   -0.7308   -1.7993    0.0131 H   0  0  0  0  0  0  0  0  0  0  0  0
   -1.0557    0.2440    0.0000 N   0  0  0  0  0  0  0  0  0  0  0  0
   -2.0554    0.3037    0.0052 H   0  0  0  0  0  0  0  0  0  0  0  0
   -5.4051    2.1170   -1.6643 C   0  0  0  0  0  0  0  0  0  0  0  0
   -6.3489    1.9300   -1.9555 H   0  0  0  0  0  0  0  0  0  0  0  0
   -5.4571    2.8896   -0.8972 H   0  0  0  0  0  0  0  0  0  0  0  0
   -4.7910    2.4312   -2.5082 H   0  0  0  0  0  0  0  0  0  0  0  0
   -4.8444    0.8200   -1.0933 C   0  0  0  0  0  0  0  0  0  0  0  0
   -3.8773    0.8446   -0.3241 O   0  0  0  0  0  0  0  0  0  0  0  0
   -5.4663   -0.3147   -1.4425 N   0  0  0  0  0  0  0  0  0  0  0  0
   -5.0415   -1.6306   -0.9598 C   0  0  0  0  0  0  0  0  0  0  0  0
   -5.1076   -1.6788    0.0461 H   0  0  0  0  0  0  0  0  0  0  0  0
   -4.0326   -1.8718   -1.2944 H   0  0  0  0  0  0  0  0  0  0  0  0
   -6.0587   -2.5947   -1.5942 C   0  0  0  0  0  0  0  0  0  0  0  0
   -5.6622   -3.0334   -2.4078 H   0  0  0  0  0  0  0  0  0  0  0  0
   -6.3172   -3.3104   -0.9384 H   0  0  0  0  0  0  0  0  0  0  0  0
   -7.2231   -1.7456   -1.9532 C   0  0  0  0  0  0  0  0  0  0  0  0
   -7.7274   -2.1415   -2.7293 H   0  0  0  0  0  0  0  0  0  0  0  0
   -7.8553   -1.6615   -1.1746 H   0  0  0  0  0  0  0  0  0  0  0  0
   -6.6465   -0.4088   -2.3188 C   0  0  0  0  0  0  0  0  0  0  0  0
   -6.3737   -0.3758   -3.2780 H   0  0  0  0  0  0  0  0  0  0  0  0
   -7.2865    0.3329   -2.1256 H   0  0  0  0  0  0  0  0  0  0  0  0
  1  5  1  0
  5  6  2  0
  6  8  1  0
  8 10  2  0
 10 12  1  0
 12  5  1  0
  1  2  1  0
  1  3  1  0
  1  4  1  0
  6  7  1  0
  8  9  1  0
 10 11  1  0
 12 13  1  0
 14 18  1  0
 18 19  2  0
 18 20  1  0
 20 21  1  0
 21 24  1  0
 24 27  1  0
 27 30  1  0
 30 20  1  0
 14 15  1  0
 14 16  1  0
 14 17  1  0
 21 22  1  0
 21 23  1  0
 24 25  1  0
 24 26  1  0
 27 28  1  0
 27 29  1  0
 30 31  1  0
 30 32  1  0
M  CHG  1   8   1
M  END
>  <PDB_ID>  (64) 
pdb5ayd

>  <RESIDUE_NAME>  (64) 
HIP   PRO

>  <FRAG_NAME>  (64) 
MIMM   N1PA

>  <FRAG_ATOM_NUM>  (64) 
fragi: 13  fragj: 19

>  <atom.prop.CHAIN_ID>  (64) 
A A A A A A A A A A A A A Z Z Z Z Z Z Z Z Z Z Z Z Z Z Z Z Z Z Z

>  <atom.prop.IS_HEAVY_ATOM>  (64) 
1 0 0 0 1 1 0 1 0 1 0 1 0 1 0 0 0 1 1 1 1 0 0 1 0 0 1 0 0 1 0 0

>  <DIFUSE_FUNC_ATOM>  (64) 
n/a

>  <FINAL_SINGLE_POINT_ENERGY>  (64) 
0

>  <NONCOV_INTER_ENERGY_QM>  (64) 
0

>  <FF_Energy>  (64) 
-19.75

>  <QM_Energy>  (64) 
-25.37

>  <Index>  (64) 
862

$$$$
MIMM-pdb5ayd-E-HIP-78:N1PA-pdb5ayd-E-PRO-92
     RDKit          3D

 32 32  0  0  0  0  0  0  0  0999 V2000
   -0.6800    2.7409   -0.0278 C   0  0  0  0  0  0  0  0  0  0  0  0
   -0.5459    3.1311    0.8916 H   0  0  0  0  0  0  0  0  0  0  0  0
   -1.6683    2.7347   -0.2257 H   0  0  0  0  0  0  0  0  0  0  0  0
   -0.1819    3.3809   -0.7560 H   0  0  0  0  0  0  0  0  0  0  0  0
   -0.1945    1.3212   -0.0122 C   0  0  0  0  0  0  0  0  0  0  0  0
    1.0564    0.8022    0.0000 C   0  0  0  0  0  0  0  0  0  0  0  0
    1.9109    1.3140    0.0048 H   0  0  0  0  0  0  0  0  0  0  0  0
    0.9268   -0.5668    0.0060 N   0  0  0  0  0  4  0  0  0  0  0  0
    1.6846   -1.2220    0.0098 H   0  0  0  0  0  0  0  0  0  0  0  0
   -0.3567   -0.8770    0.0036 C   0  0  0  0  0  0  0  0  0  0  0  0
   -0.7323   -1.7996    0.0062 H   0  0  0  0  0  0  0  0  0  0  0  0
   -1.0564    0.2430   -0.0000 N   0  0  0  0  0  0  0  0  0  0  0  0
   -2.0543    0.3052    0.0048 H   0  0  0  0  0  0  0  0  0  0  0  0
   -5.5726    1.9495   -1.1986 C   0  0  0  0  0  0  0  0  0  0  0  0
   -6.5205    1.6932   -1.4094 H   0  0  0  0  0  0  0  0  0  0  0  0
   -5.6107    2.7272   -0.4358 H   0  0  0  0  0  0  0  0  0  0  0  0
   -5.0467    2.2961   -2.0883 H   0  0  0  0  0  0  0  0  0  0  0  0
   -4.8867    0.7157   -0.6484 C   0  0  0  0  0  0  0  0  0  0  0  0
   -3.8637    0.8275    0.0110 O   0  0  0  0  0  0  0  0  0  0  0  0
   -5.4677   -0.4629   -0.8942 N   0  0  0  0  0  0  0  0  0  0  0  0
   -4.8909   -1.7271   -0.4292 C   0  0  0  0  0  0  0  0  0  0  0  0
   -4.7310   -1.7021    0.5710 H   0  0  0  0  0  0  0  0  0  0  0  0
   -3.9706   -1.9855   -0.9529 H   0  0  0  0  0  0  0  0  0  0  0  0
   -5.9908   -2.7512   -0.7340 C   0  0  0  0  0  0  0  0  0  0  0  0
   -5.7697   -3.2712   -1.5661 H   0  0  0  0  0  0  0  0  0  0  0  0
   -6.0959   -3.3967    0.0288 H   0  0  0  0  0  0  0  0  0  0  0  0
   -7.2407   -1.9454   -0.9266 C   0  0  0  0  0  0  0  0  0  0  0  0
   -7.8737   -2.4260   -1.5413 H   0  0  0  0  0  0  0  0  0  0  0  0
   -7.6975   -1.7971   -0.0444 H   0  0  0  0  0  0  0  0  0  0  0  0
   -6.7838   -0.6516   -1.5237 C   0  0  0  0  0  0  0  0  0  0  0  0
   -6.6918   -0.7148   -2.5142 H   0  0  0  0  0  0  0  0  0  0  0  0
   -7.3964    0.1011   -1.2883 H   0  0  0  0  0  0  0  0  0  0  0  0
  1  5  1  0
  5  6  2  0
  6  8  1  0
  8 10  2  0
 10 12  1  0
 12  5  1  0
  1  2  1  0
  1  3  1  0
  1  4  1  0
  6  7  1  0
  8  9  1  0
 10 11  1  0
 12 13  1  0
 14 18  1  0
 18 19  2  0
 18 20  1  0
 20 21  1  0
 21 24  1  0
 24 27  1  0
 27 30  1  0
 30 20  1  0
 14 15  1  0
 14 16  1  0
 14 17  1  0
 21 22  1  0
 21 23  1  0
 24 25  1  0
 24 26  1  0
 27 28  1  0
 27 29  1  0
 30 31  1  0
 30 32  1  0
M  CHG  1   8   1
M  END
>  <PDB_ID>  (65) 
pdb5ayd

>  <RESIDUE_NAME>  (65) 
HIP   PRO

>  <FRAG_NAME>  (65) 
MIMM   N1PA

>  <FRAG_ATOM_NUM>  (65) 
fragi: 13  fragj: 19

>  <atom.prop.CHAIN_ID>  (65) 
A A A A A A A A A A A A A Z Z Z Z Z Z Z Z Z Z Z Z Z Z Z Z Z Z Z

>  <atom.prop.IS_HEAVY_ATOM>  (65) 
1 0 0 0 1 1 0 1 0 1 0 1 0 1 0 0 0 1 1 1 1 0 0 1 0 0 1 0 0 1 0 0

>  <DIFUSE_FUNC_ATOM>  (65) 
n/a

>  <FINAL_SINGLE_POINT_ENERGY>  (65) 
0

>  <NONCOV_INTER_ENERGY_QM>  (65) 
0

>  <FF_Energy>  (65) 
-19.67

>  <QM_Energy>  (65) 
-25.56

>  <Index>  (65) 
863

$$$$
MIMM-pdb5bnz-B-HIP-197:N1PA-pdb5bnz-B-PRO-168
     RDKit          3D

 32 32  0  0  0  0  0  0  0  0999 V2000
   -0.6740    2.7466   -0.0154 C   0  0  0  0  0  0  0  0  0  0  0  0
   -1.5406    2.7854   -0.5210 H   0  0  0  0  0  0  0  0  0  0  0  0
    0.0066    3.3062   -0.4949 H   0  0  0  0  0  0  0  0  0  0  0  0
   -0.8270    3.1529    0.9845 H   0  0  0  0  0  0  0  0  0  0  0  0
   -0.1928    1.3208   -0.0147 C   0  0  0  0  0  0  0  0  0  0  0  0
    1.0557    0.8016   -0.0000 C   0  0  0  0  0  0  0  0  0  0  0  0
    1.9117    1.3112    0.0040 H   0  0  0  0  0  0  0  0  0  0  0  0
    0.9264   -0.5679    0.0106 N   0  0  0  0  0  4  0  0  0  0  0  0
    1.6843   -1.2230    0.0208 H   0  0  0  0  0  0  0  0  0  0  0  0
   -0.3561   -0.8775    0.0044 C   0  0  0  0  0  0  0  0  0  0  0  0
   -0.7336   -1.7986    0.0041 H   0  0  0  0  0  0  0  0  0  0  0  0
   -1.0557    0.2442   -0.0000 N   0  0  0  0  0  0  0  0  0  0  0  0
   -2.0530    0.3063    0.0068 H   0  0  0  0  0  0  0  0  0  0  0  0
   -0.2533   -5.9102   -0.5902 C   0  0  0  0  0  0  0  0  0  0  0  0
   -0.3494   -6.3525   -1.4995 H   0  0  0  0  0  0  0  0  0  0  0  0
    0.8124   -5.7462   -0.4311 H   0  0  0  0  0  0  0  0  0  0  0  0
   -0.6465   -6.5548    0.1959 H   0  0  0  0  0  0  0  0  0  0  0  0
   -1.0720   -4.6202   -0.6431 C   0  0  0  0  0  0  0  0  0  0  0  0
   -0.7261   -3.6248   -0.0121 O   0  0  0  0  0  0  0  0  0  0  0  0
   -2.1873   -4.6396   -1.3916 N   0  0  0  0  0  0  0  0  0  0  0  0
   -2.9907   -3.4104   -1.5140 C   0  0  0  0  0  0  0  0  0  0  0  0
   -2.4020   -2.6337   -1.7970 H   0  0  0  0  0  0  0  0  0  0  0  0
   -3.5377   -3.1708   -0.6021 H   0  0  0  0  0  0  0  0  0  0  0  0
   -3.9631   -3.7277   -2.6575 C   0  0  0  0  0  0  0  0  0  0  0  0
   -4.8759   -3.3452   -2.4579 H   0  0  0  0  0  0  0  0  0  0  0  0
   -3.6363   -3.3185   -3.5192 H   0  0  0  0  0  0  0  0  0  0  0  0
   -4.0112   -5.2082   -2.7510 C   0  0  0  0  0  0  0  0  0  0  0  0
   -4.7533   -5.5818   -2.1756 H   0  0  0  0  0  0  0  0  0  0  0  0
   -4.1801   -5.5035   -3.7020 H   0  0  0  0  0  0  0  0  0  0  0  0
   -2.6648   -5.7236   -2.2719 C   0  0  0  0  0  0  0  0  0  0  0  0
   -2.7662   -6.5735   -1.7610 H   0  0  0  0  0  0  0  0  0  0  0  0
   -2.0386   -5.8595   -3.0368 H   0  0  0  0  0  0  0  0  0  0  0  0
  1  5  1  0
  5  6  2  0
  6  8  1  0
  8 10  2  0
 10 12  1  0
 12  5  1  0
  1  2  1  0
  1  3  1  0
  1  4  1  0
  6  7  1  0
  8  9  1  0
 10 11  1  0
 12 13  1  0
 14 18  1  0
 18 19  2  0
 18 20  1  0
 20 21  1  0
 21 24  1  0
 24 27  1  0
 27 30  1  0
 30 20  1  0
 14 15  1  0
 14 16  1  0
 14 17  1  0
 21 22  1  0
 21 23  1  0
 24 25  1  0
 24 26  1  0
 27 28  1  0
 27 29  1  0
 30 31  1  0
 30 32  1  0
M  CHG  1   8   1
M  END
>  <PDB_ID>  (66) 
pdb5bnz

>  <RESIDUE_NAME>  (66) 
HIP   PRO

>  <FRAG_NAME>  (66) 
MIMM   N1PA

>  <FRAG_ATOM_NUM>  (66) 
fragi: 13  fragj: 19

>  <atom.prop.CHAIN_ID>  (66) 
A A A A A A A A A A A A A Z Z Z Z Z Z Z Z Z Z Z Z Z Z Z Z Z Z Z

>  <atom.prop.IS_HEAVY_ATOM>  (66) 
1 0 0 0 1 1 0 1 0 1 0 1 0 1 0 0 0 1 1 1 1 0 0 1 0 0 1 0 0 1 0 0

>  <DIFUSE_FUNC_ATOM>  (66) 
n/a

>  <FINAL_SINGLE_POINT_ENERGY>  (66) 
0

>  <NONCOV_INTER_ENERGY_QM>  (66) 
0

>  <FF_Energy>  (66) 
3.52

>  <QM_Energy>  (66) 
-18.85

>  <Index>  (66) 
870

$$$$
MIMM-pdb6bs3-B-HIP-324:N1PA-pdb6bs3-B-PRO-293
     RDKit          3D

 32 32  0  0  0  0  0  0  0  0999 V2000
   -0.5881    2.7384    0.0303 C   0  0  0  0  0  0  0  0  0  0  0  0
   -1.4739    2.8161   -0.4427 H   0  0  0  0  0  0  0  0  0  0  0  0
    0.0911    3.2830   -0.4764 H   0  0  0  0  0  0  0  0  0  0  0  0
   -0.6902    3.1553    1.0322 H   0  0  0  0  0  0  0  0  0  0  0  0
   -0.1609    1.3059    0.0048 C   0  0  0  0  0  0  0  0  0  0  0  0
    1.0845    0.7756    0.0000 C   0  0  0  0  0  0  0  0  0  0  0  0
    1.9425    1.2759   -0.0045 H   0  0  0  0  0  0  0  0  0  0  0  0
    0.9323   -0.5872    0.0042 N   0  0  0  0  0  4  0  0  0  0  0  0
    1.6549   -1.2626    0.0104 H   0  0  0  0  0  0  0  0  0  0  0  0
   -0.3751   -0.8384   -0.0032 C   0  0  0  0  0  0  0  0  0  0  0  0
   -0.7714   -1.7719   -0.0091 H   0  0  0  0  0  0  0  0  0  0  0  0
   -1.0845    0.2776   -0.0000 N   0  0  0  0  0  0  0  0  0  0  0  0
   -2.0561    0.3635   -0.0013 H   0  0  0  0  0  0  0  0  0  0  0  0
    2.0576   -3.7479   -2.3471 C   0  0  0  0  0  0  0  0  0  0  0  0
    2.5793   -4.3477   -2.9663 H   0  0  0  0  0  0  0  0  0  0  0  0
    1.1083   -4.2324   -2.1186 H   0  0  0  0  0  0  0  0  0  0  0  0
    1.8884   -2.8149   -2.8847 H   0  0  0  0  0  0  0  0  0  0  0  0
    2.9017   -3.5108   -1.0836 C   0  0  0  0  0  0  0  0  0  0  0  0
    2.3815   -2.9413   -0.1274 O   0  0  0  0  0  0  0  0  0  0  0  0
    4.1750   -3.9769   -1.0282 N   0  0  0  0  0  0  0  0  0  0  0  0
    4.9741   -3.7661    0.1950 C   0  0  0  0  0  0  0  0  0  0  0  0
    4.5102   -4.1924    0.9951 H   0  0  0  0  0  0  0  0  0  0  0  0
    5.2012   -2.7196    0.3984 H   0  0  0  0  0  0  0  0  0  0  0  0
    6.2318   -4.6108   -0.0354 C   0  0  0  0  0  0  0  0  0  0  0  0
    7.0421   -4.1403    0.3368 H   0  0  0  0  0  0  0  0  0  0  0  0
    6.1451   -5.5018    0.4265 H   0  0  0  0  0  0  0  0  0  0  0  0
    6.3302   -4.7716   -1.5026 C   0  0  0  0  0  0  0  0  0  0  0  0
    6.9084   -4.0385   -1.9052 H   0  0  0  0  0  0  0  0  0  0  0  0
    6.7720   -5.6565   -1.7363 H   0  0  0  0  0  0  0  0  0  0  0  0
    4.9406   -4.7125   -2.0590 C   0  0  0  0  0  0  0  0  0  0  0  0
    4.9107   -4.2184   -2.9313 H   0  0  0  0  0  0  0  0  0  0  0  0
    4.5541   -5.6296   -2.1901 H   0  0  0  0  0  0  0  0  0  0  0  0
  1  5  1  0
  5  6  2  0
  6  8  1  0
  8 10  2  0
 10 12  1  0
 12  5  1  0
  1  2  1  0
  1  3  1  0
  1  4  1  0
  6  7  1  0
  8  9  1  0
 10 11  1  0
 12 13  1  0
 14 18  1  0
 18 19  2  0
 18 20  1  0
 20 21  1  0
 21 24  1  0
 24 27  1  0
 27 30  1  0
 30 20  1  0
 14 15  1  0
 14 16  1  0
 14 17  1  0
 21 22  1  0
 21 23  1  0
 24 25  1  0
 24 26  1  0
 27 28  1  0
 27 29  1  0
 30 31  1  0
 30 32  1  0
M  CHG  1   8   1
M  END
>  <PDB_ID>  (67) 
pdb6bs3

>  <RESIDUE_NAME>  (67) 
HIP   PRO

>  <FRAG_NAME>  (67) 
MIMM   N1PA

>  <FRAG_ATOM_NUM>  (67) 
fragi: 13  fragj: 19

>  <atom.prop.CHAIN_ID>  (67) 
A A A A A A A A A A A A A Z Z Z Z Z Z Z Z Z Z Z Z Z Z Z Z Z Z Z

>  <atom.prop.IS_HEAVY_ATOM>  (67) 
1 0 0 0 1 1 0 1 0 1 0 1 0 1 0 0 0 1 1 1 1 0 0 1 0 0 1 0 0 1 0 0

>  <DIFUSE_FUNC_ATOM>  (67) 
n/a

>  <FINAL_SINGLE_POINT_ENERGY>  (67) 
0

>  <NONCOV_INTER_ENERGY_QM>  (67) 
0

>  <FF_Energy>  (67) 
-18.8

>  <QM_Energy>  (67) 
-24.85

>  <Index>  (67) 
878

$$$$
MIMM-pdb5dac-A-HIP-158:N1PA-pdb5dac-A-PRO-56
     RDKit          3D

 32 32  0  0  0  0  0  0  0  0999 V2000
   -0.6851    2.7405    0.0094 C   0  0  0  0  0  0  0  0  0  0  0  0
   -1.6413    2.7447   -0.3040 H   0  0  0  0  0  0  0  0  0  0  0  0
   -0.1316    3.2625   -0.6482 H   0  0  0  0  0  0  0  0  0  0  0  0
   -0.6296    3.2289    0.9823 H   0  0  0  0  0  0  0  0  0  0  0  0
   -0.1969    1.3199    0.0118 C   0  0  0  0  0  0  0  0  0  0  0  0
    1.0562    0.8012   -0.0000 C   0  0  0  0  0  0  0  0  0  0  0  0
    1.9094    1.3154   -0.0019 H   0  0  0  0  0  0  0  0  0  0  0  0
    0.9282   -0.5659   -0.0070 N   0  0  0  0  0  4  0  0  0  0  0  0
    1.6849   -1.2223   -0.0143 H   0  0  0  0  0  0  0  0  0  0  0  0
   -0.3560   -0.8751   -0.0048 C   0  0  0  0  0  0  0  0  0  0  0  0
   -0.7314   -1.7988   -0.0047 H   0  0  0  0  0  0  0  0  0  0  0  0
   -1.0562    0.2436    0.0000 N   0  0  0  0  0  0  0  0  0  0  0  0
   -2.0554    0.3037   -0.0055 H   0  0  0  0  0  0  0  0  0  0  0  0
   -6.7785   -2.1058   -3.6219 C   0  0  0  0  0  0  0  0  0  0  0  0
   -6.9618   -2.4856   -2.7106 H   0  0  0  0  0  0  0  0  0  0  0  0
   -7.5714   -1.4022   -3.8757 H   0  0  0  0  0  0  0  0  0  0  0  0
   -6.7424   -2.9217   -4.3437 H   0  0  0  0  0  0  0  0  0  0  0  0
   -5.4468   -1.3865   -3.5851 C   0  0  0  0  0  0  0  0  0  0  0  0
   -5.3279   -0.2645   -4.0545 O   0  0  0  0  0  0  0  0  0  0  0  0
   -4.4293   -2.0347   -3.0202 N   0  0  0  0  0  0  0  0  0  0  0  0
   -3.1248   -1.3803   -2.9447 C   0  0  0  0  0  0  0  0  0  0  0  0
   -3.1744   -0.5338   -2.4074 H   0  0  0  0  0  0  0  0  0  0  0  0
   -2.7400   -1.1735   -3.9433 H   0  0  0  0  0  0  0  0  0  0  0  0
   -2.2678   -2.4098   -2.2043 C   0  0  0  0  0  0  0  0  0  0  0  0
   -1.7344   -2.9610   -2.8532 H   0  0  0  0  0  0  0  0  0  0  0  0
   -1.6350   -1.9565   -1.5709 H   0  0  0  0  0  0  0  0  0  0  0  0
   -3.2466   -3.2661   -1.4578 C   0  0  0  0  0  0  0  0  0  0  0  0
   -2.8573   -4.1843   -1.3068 H   0  0  0  0  0  0  0  0  0  0  0  0
   -3.4443   -2.8580   -0.5571 H   0  0  0  0  0  0  0  0  0  0  0  0
   -4.4604   -3.3233   -2.3069 C   0  0  0  0  0  0  0  0  0  0  0  0
   -4.4271   -4.0817   -2.9606 H   0  0  0  0  0  0  0  0  0  0  0  0
   -5.2993   -3.3973   -1.7616 H   0  0  0  0  0  0  0  0  0  0  0  0
  1  5  1  0
  5  6  2  0
  6  8  1  0
  8 10  2  0
 10 12  1  0
 12  5  1  0
  1  2  1  0
  1  3  1  0
  1  4  1  0
  6  7  1  0
  8  9  1  0
 10 11  1  0
 12 13  1  0
 14 18  1  0
 18 19  2  0
 18 20  1  0
 20 21  1  0
 21 24  1  0
 24 27  1  0
 27 30  1  0
 30 20  1  0
 14 15  1  0
 14 16  1  0
 14 17  1  0
 21 22  1  0
 21 23  1  0
 24 25  1  0
 24 26  1  0
 27 28  1  0
 27 29  1  0
 30 31  1  0
 30 32  1  0
M  CHG  1   8   1
M  END
>  <PDB_ID>  (68) 
pdb5dac

>  <RESIDUE_NAME>  (68) 
HIP   PRO

>  <FRAG_NAME>  (68) 
MIMM   N1PA

>  <FRAG_ATOM_NUM>  (68) 
fragi: 13  fragj: 19

>  <atom.prop.CHAIN_ID>  (68) 
A A A A A A A A A A A A A Z Z Z Z Z Z Z Z Z Z Z Z Z Z Z Z Z Z Z

>  <atom.prop.IS_HEAVY_ATOM>  (68) 
1 0 0 0 1 1 0 1 0 1 0 1 0 1 0 0 0 1 1 1 1 0 0 1 0 0 1 0 0 1 0 0

>  <DIFUSE_FUNC_ATOM>  (68) 
n/a

>  <FINAL_SINGLE_POINT_ENERGY>  (68) 
0

>  <NONCOV_INTER_ENERGY_QM>  (68) 
0

>  <FF_Energy>  (68) 
7.57

>  <QM_Energy>  (68) 
2.18

>  <Index>  (68) 
899

$$$$
MIMM-pdb6grl-A-HIP-37:N1PA-pdb6grl-A-PRO-15
     RDKit          3D

 32 32  0  0  0  0  0  0  0  0999 V2000
   -0.6711    2.7365   -0.0019 C   0  0  0  0  0  0  0  0  0  0  0  0
    0.0152    3.3002    0.4753 H   0  0  0  0  0  0  0  0  0  0  0  0
   -1.5313    2.7793    0.5232 H   0  0  0  0  0  0  0  0  0  0  0  0
   -0.8433    3.1541   -0.9939 H   0  0  0  0  0  0  0  0  0  0  0  0
   -0.1941    1.3199   -0.0071 C   0  0  0  0  0  0  0  0  0  0  0  0
    1.0561    0.8008   -0.0000 C   0  0  0  0  0  0  0  0  0  0  0  0
    1.9112    1.3125    0.0040 H   0  0  0  0  0  0  0  0  0  0  0  0
    0.9271   -0.5668    0.0016 N   0  0  0  0  0  4  0  0  0  0  0  0
    1.6837   -1.2233    0.0016 H   0  0  0  0  0  0  0  0  0  0  0  0
   -0.3573   -0.8760    0.0021 C   0  0  0  0  0  0  0  0  0  0  0  0
   -0.7330   -1.7984    0.0055 H   0  0  0  0  0  0  0  0  0  0  0  0
   -1.0561    0.2445   -0.0000 N   0  0  0  0  0  0  0  0  0  0  0  0
   -2.0542    0.3068    0.0022 H   0  0  0  0  0  0  0  0  0  0  0  0
   -5.0169   -0.7153   -0.8983 C   0  0  0  0  0  0  0  0  0  0  0  0
   -5.8090   -0.5914   -1.5047 H   0  0  0  0  0  0  0  0  0  0  0  0
   -4.1581   -0.9514   -1.5267 H   0  0  0  0  0  0  0  0  0  0  0  0
   -5.1838   -1.5072   -0.1683 H   0  0  0  0  0  0  0  0  0  0  0  0
   -4.7996    0.6125   -0.1756 C   0  0  0  0  0  0  0  0  0  0  0  0
   -3.6708    0.9289    0.2153 O   0  0  0  0  0  0  0  0  0  0  0  0
   -5.8519    1.4086    0.0160 N   0  0  0  0  0  0  0  0  0  0  0  0
   -5.7231    2.6067    0.8546 C   0  0  0  0  0  0  0  0  0  0  0  0
   -5.0696    3.2556    0.4481 H   0  0  0  0  0  0  0  0  0  0  0  0
   -5.4280    2.3404    1.8695 H   0  0  0  0  0  0  0  0  0  0  0  0
   -7.1278    3.2209    0.8186 C   0  0  0  0  0  0  0  0  0  0  0  0
   -7.6575    2.9391    1.6208 H   0  0  0  0  0  0  0  0  0  0  0  0
   -7.0767    4.2206    0.7936 H   0  0  0  0  0  0  0  0  0  0  0  0
   -7.7406    2.6853   -0.4408 C   0  0  0  0  0  0  0  0  0  0  0  0
   -8.7420    2.6700   -0.3630 H   0  0  0  0  0  0  0  0  0  0  0  0
   -7.4872    3.2618   -1.2243 H   0  0  0  0  0  0  0  0  0  0  0  0
   -7.1894    1.2974   -0.5913 C   0  0  0  0  0  0  0  0  0  0  0  0
   -7.7423    0.6267   -0.0994 H   0  0  0  0  0  0  0  0  0  0  0  0
   -7.1172    1.0326   -1.5521 H   0  0  0  0  0  0  0  0  0  0  0  0
  1  5  1  0
  5  6  2  0
  6  8  1  0
  8 10  2  0
 10 12  1  0
 12  5  1  0
  1  2  1  0
  1  3  1  0
  1  4  1  0
  6  7  1  0
  8  9  1  0
 10 11  1  0
 12 13  1  0
 14 18  1  0
 18 19  2  0
 18 20  1  0
 20 21  1  0
 21 24  1  0
 24 27  1  0
 27 30  1  0
 30 20  1  0
 14 15  1  0
 14 16  1  0
 14 17  1  0
 21 22  1  0
 21 23  1  0
 24 25  1  0
 24 26  1  0
 27 28  1  0
 27 29  1  0
 30 31  1  0
 30 32  1  0
M  CHG  1   8   1
M  END
>  <PDB_ID>  (69) 
pdb6grl

>  <RESIDUE_NAME>  (69) 
HIP   PRO

>  <FRAG_NAME>  (69) 
MIMM   N1PA

>  <FRAG_ATOM_NUM>  (69) 
fragi: 13  fragj: 19

>  <atom.prop.CHAIN_ID>  (69) 
A A A A A A A A A A A A A Z Z Z Z Z Z Z Z Z Z Z Z Z Z Z Z Z Z Z

>  <atom.prop.IS_HEAVY_ATOM>  (69) 
1 0 0 0 1 1 0 1 0 1 0 1 0 1 0 0 0 1 1 1 1 0 0 1 0 0 1 0 0 1 0 0

>  <DIFUSE_FUNC_ATOM>  (69) 
n/a

>  <FINAL_SINGLE_POINT_ENERGY>  (69) 
0

>  <NONCOV_INTER_ENERGY_QM>  (69) 
0

>  <FF_Energy>  (69) 
-20.24

>  <QM_Energy>  (69) 
-28.08

>  <Index>  (69) 
939

$$$$
MIMM-pdb6j02-B-HIP-97:N1PA-pdb6j02-B-PRO-67
     RDKit          3D

 32 32  0  0  0  0  0  0  0  0999 V2000
   -0.6690    2.7208    0.0198 C   0  0  0  0  0  0  0  0  0  0  0  0
    0.0929    3.2972    0.1833 H   0  0  0  0  0  0  0  0  0  0  0  0
   -1.3177    2.8179    0.7339 H   0  0  0  0  0  0  0  0  0  0  0  0
   -1.1351    3.0058   -0.9234 H   0  0  0  0  0  0  0  0  0  0  0  0
   -0.1882    1.3087    0.0210 C   0  0  0  0  0  0  0  0  0  0  0  0
    1.0595    0.7806   -0.0000 C   0  0  0  0  0  0  0  0  0  0  0  0
    1.8595    1.2544    0.0051 H   0  0  0  0  0  0  0  0  0  0  0  0
    0.9193   -0.5853   -0.0087 N   0  0  0  0  0  4  0  0  0  0  0  0
    1.5644   -1.1552   -0.0151 H   0  0  0  0  0  0  0  0  0  0  0  0
   -0.3719   -0.8843   -0.0040 C   0  0  0  0  0  0  0  0  0  0  0  0
   -0.7311   -1.7418   -0.0123 H   0  0  0  0  0  0  0  0  0  0  0  0
   -1.0595    0.2378   -0.0000 N   0  0  0  0  0  0  0  0  0  0  0  0
   -1.9171    0.2952    0.0068 H   0  0  0  0  0  0  0  0  0  0  0  0
    2.7541   -3.8359    1.8394 C   0  0  0  0  0  0  0  0  0  0  0  0
    3.7141   -3.9449    1.9260 H   0  0  0  0  0  0  0  0  0  0  0  0
    2.3162   -4.5932    2.2580 H   0  0  0  0  0  0  0  0  0  0  0  0
    2.4429   -2.9138    2.3305 H   0  0  0  0  0  0  0  0  0  0  0  0
    2.3983   -3.8211    0.3672 C   0  0  0  0  0  0  0  0  0  0  0  0
    2.3157   -2.7617   -0.2714 O   0  0  0  0  0  0  0  0  0  0  0  0
    2.2132   -5.0051   -0.2078 N   0  0  0  0  0  0  0  0  0  0  0  0
    1.9473   -5.0859   -1.6451 C   0  0  0  0  0  0  0  0  0  0  0  0
    2.6475   -4.6441   -2.1496 H   0  0  0  0  0  0  0  0  0  0  0  0
    0.9813   -4.6441   -1.8898 H   0  0  0  0  0  0  0  0  0  0  0  0
    1.9623   -6.5897   -1.9437 C   0  0  0  0  0  0  0  0  0  0  0  0
    1.2132   -6.8138   -2.5173 H   0  0  0  0  0  0  0  0  0  0  0  0
    2.8013   -6.8278   -2.3673 H   0  0  0  0  0  0  0  0  0  0  0  0
    1.8322   -7.2636   -0.6347 C   0  0  0  0  0  0  0  0  0  0  0  0
    0.8978   -7.4626   -0.4700 H   0  0  0  0  0  0  0  0  0  0  0  0
    2.3525   -8.0828   -0.6449 H   0  0  0  0  0  0  0  0  0  0  0  0
    2.3539   -6.3379    0.4108 C   0  0  0  0  0  0  0  0  0  0  0  0
    1.8135   -6.3958    1.2132 H   0  0  0  0  0  0  0  0  0  0  0  0
    3.2868   -6.5273    0.5949 H   0  0  0  0  0  0  0  0  0  0  0  0
  1  5  1  0
  5  6  2  0
  6  8  1  0
  8 10  2  0
 10 12  1  0
 12  5  1  0
  1  2  1  0
  1  3  1  0
  1  4  1  0
  6  7  1  0
  8  9  1  0
 10 11  1  0
 12 13  1  0
 14 18  1  0
 18 19  2  0
 18 20  1  0
 20 21  1  0
 21 24  1  0
 24 27  1  0
 27 30  1  0
 30 20  1  0
 14 15  1  0
 14 16  1  0
 14 17  1  0
 21 22  1  0
 21 23  1  0
 24 25  1  0
 24 26  1  0
 27 28  1  0
 27 29  1  0
 30 31  1  0
 30 32  1  0
M  CHG  1   8   1
M  END
>  <PDB_ID>  (70) 
pdb6j02

>  <RESIDUE_NAME>  (70) 
HIP   PRO

>  <FRAG_NAME>  (70) 
MIMM   N1PA

>  <FRAG_ATOM_NUM>  (70) 
fragi: 13  fragj: 19

>  <atom.prop.CHAIN_ID>  (70) 
A A A A A A A A A A A A A Z Z Z Z Z Z Z Z Z Z Z Z Z Z Z Z Z Z Z

>  <atom.prop.IS_HEAVY_ATOM>  (70) 
1 0 0 0 1 1 0 1 0 1 0 1 0 1 0 0 0 1 1 1 1 0 0 1 0 0 1 0 0 1 0 0

>  <DIFUSE_FUNC_ATOM>  (70) 
n/a

>  <FINAL_SINGLE_POINT_ENERGY>  (70) 
0

>  <NONCOV_INTER_ENERGY_QM>  (70) 
0

>  <FF_Energy>  (70) 
-16.52

>  <QM_Energy>  (70) 
-23.42

>  <Index>  (70) 
984

$$$$
MIMM-pdb5iqs-A-HIP-129:N1PA-pdb5iqs-A-PRO-135
     RDKit          3D

 32 32  0  0  0  0  0  0  0  0999 V2000
   -0.6819    2.7279    0.0028 C   0  0  0  0  0  0  0  0  0  0  0  0
   -1.3110    2.8553   -0.7700 H   0  0  0  0  0  0  0  0  0  0  0  0
    0.1070    3.3374   -0.1188 H   0  0  0  0  0  0  0  0  0  0  0  0
   -1.1954    2.9921    0.9273 H   0  0  0  0  0  0  0  0  0  0  0  0
   -0.1948    1.3183   -0.0131 C   0  0  0  0  0  0  0  0  0  0  0  0
    1.0553    0.8017   -0.0000 C   0  0  0  0  0  0  0  0  0  0  0  0
    1.9089    1.3140    0.0053 H   0  0  0  0  0  0  0  0  0  0  0  0
    0.9268   -0.5654    0.0054 N   0  0  0  0  0  4  0  0  0  0  0  0
    1.6843   -1.2216    0.0087 H   0  0  0  0  0  0  0  0  0  0  0  0
   -0.3570   -0.8755    0.0042 C   0  0  0  0  0  0  0  0  0  0  0  0
   -0.7320   -1.7984    0.0076 H   0  0  0  0  0  0  0  0  0  0  0  0
   -1.0553    0.2438    0.0000 N   0  0  0  0  0  0  0  0  0  0  0  0
   -2.0544    0.3056    0.0046 H   0  0  0  0  0  0  0  0  0  0  0  0
   -4.8002   -1.0637    1.3413 C   0  0  0  0  0  0  0  0  0  0  0  0
   -4.8500   -2.0566    1.1774 H   0  0  0  0  0  0  0  0  0  0  0  0
   -4.0103   -0.8701    2.0670 H   0  0  0  0  0  0  0  0  0  0  0  0
   -5.7541   -0.7041    1.7272 H   0  0  0  0  0  0  0  0  0  0  0  0
   -4.5128   -0.3721    0.0129 C   0  0  0  0  0  0  0  0  0  0  0  0
   -3.7719    0.6155   -0.0264 O   0  0  0  0  0  0  0  0  0  0  0  0
   -5.1021   -0.8795   -1.0864 N   0  0  0  0  0  0  0  0  0  0  0  0
   -5.0269   -0.1248   -2.3376 C   0  0  0  0  0  0  0  0  0  0  0  0
   -4.0703    0.0374   -2.6011 H   0  0  0  0  0  0  0  0  0  0  0  0
   -5.5700    0.8165   -2.2530 H   0  0  0  0  0  0  0  0  0  0  0  0
   -5.7036   -1.0481   -3.3557 C   0  0  0  0  0  0  0  0  0  0  0  0
   -6.2477   -0.5119   -4.0101 H   0  0  0  0  0  0  0  0  0  0  0  0
   -5.0164   -1.5748   -3.8653 H   0  0  0  0  0  0  0  0  0  0  0  0
   -6.5730   -1.9445   -2.5449 C   0  0  0  0  0  0  0  0  0  0  0  0
   -7.4779   -1.5238   -2.4005 H   0  0  0  0  0  0  0  0  0  0  0  0
   -6.7067   -2.8255   -3.0150 H   0  0  0  0  0  0  0  0  0  0  0  0
   -5.8579   -2.1350   -1.2430 C   0  0  0  0  0  0  0  0  0  0  0  0
   -6.4987   -2.2540   -0.4838 H   0  0  0  0  0  0  0  0  0  0  0  0
   -5.2335   -2.9173   -1.2747 H   0  0  0  0  0  0  0  0  0  0  0  0
  1  5  1  0
  5  6  2  0
  6  8  1  0
  8 10  2  0
 10 12  1  0
 12  5  1  0
  1  2  1  0
  1  3  1  0
  1  4  1  0
  6  7  1  0
  8  9  1  0
 10 11  1  0
 12 13  1  0
 14 18  1  0
 18 19  2  0
 18 20  1  0
 20 21  1  0
 21 24  1  0
 24 27  1  0
 27 30  1  0
 30 20  1  0
 14 15  1  0
 14 16  1  0
 14 17  1  0
 21 22  1  0
 21 23  1  0
 24 25  1  0
 24 26  1  0
 27 28  1  0
 27 29  1  0
 30 31  1  0
 30 32  1  0
M  CHG  1   8   1
M  END
>  <PDB_ID>  (71) 
pdb5iqs

>  <RESIDUE_NAME>  (71) 
HIP   PRO

>  <FRAG_NAME>  (71) 
MIMM   N1PA

>  <FRAG_ATOM_NUM>  (71) 
fragi: 13  fragj: 19

>  <atom.prop.CHAIN_ID>  (71) 
A A A A A A A A A A A A A Z Z Z Z Z Z Z Z Z Z Z Z Z Z Z Z Z Z Z

>  <atom.prop.IS_HEAVY_ATOM>  (71) 
1 0 0 0 1 1 0 1 0 1 0 1 0 1 0 0 0 1 1 1 1 0 0 1 0 0 1 0 0 1 0 0

>  <DIFUSE_FUNC_ATOM>  (71) 
n/a

>  <FINAL_SINGLE_POINT_ENERGY>  (71) 
0

>  <NONCOV_INTER_ENERGY_QM>  (71) 
0

>  <FF_Energy>  (71) 
-17.95

>  <QM_Energy>  (71) 
-23.54

>  <Index>  (71) 
992

$$$$
MIMM-pdb6jpm-A-HIP-32:N1PA-pdb6jpm-A-PRO-118
     RDKit          3D

 32 32  0  0  0  0  0  0  0  0999 V2000
   -0.6785    2.7323   -0.0047 C   0  0  0  0  0  0  0  0  0  0  0  0
   -1.4923    2.7920   -0.5917 H   0  0  0  0  0  0  0  0  0  0  0  0
    0.0421    3.3147   -0.3959 H   0  0  0  0  0  0  0  0  0  0  0  0
   -0.9313    3.1029    0.9887 H   0  0  0  0  0  0  0  0  0  0  0  0
   -0.1961    1.3184   -0.0087 C   0  0  0  0  0  0  0  0  0  0  0  0
    1.0550    0.8024   -0.0000 C   0  0  0  0  0  0  0  0  0  0  0  0
    1.9085    1.3152    0.0054 H   0  0  0  0  0  0  0  0  0  0  0  0
    0.9272   -0.5662    0.0008 N   0  0  0  0  0  4  0  0  0  0  0  0
    1.6860   -1.2208   -0.0019 H   0  0  0  0  0  0  0  0  0  0  0  0
   -0.3545   -0.8760    0.0032 C   0  0  0  0  0  0  0  0  0  0  0  0
   -0.7311   -1.7984    0.0079 H   0  0  0  0  0  0  0  0  0  0  0  0
   -1.0550    0.2439   -0.0000 N   0  0  0  0  0  0  0  0  0  0  0  0
   -2.0536    0.3025    0.0025 H   0  0  0  0  0  0  0  0  0  0  0  0
    4.5976   -3.2135    2.1650 C   0  0  0  0  0  0  0  0  0  0  0  0
    5.1849   -4.0185    2.0411 H   0  0  0  0  0  0  0  0  0  0  0  0
    5.2162   -2.3177    2.1110 H   0  0  0  0  0  0  0  0  0  0  0  0
    4.0884   -3.2865    3.1259 H   0  0  0  0  0  0  0  0  0  0  0  0
    3.5517   -3.2063    1.0512 C   0  0  0  0  0  0  0  0  0  0  0  0
    3.0366   -2.1475    0.6820 O   0  0  0  0  0  0  0  0  0  0  0  0
    3.2187   -4.3833    0.4883 N   0  0  0  0  0  0  0  0  0  0  0  0
    2.0553   -4.4587   -0.4055 C   0  0  0  0  0  0  0  0  0  0  0  0
    2.1526   -3.7996   -1.1726 H   0  0  0  0  0  0  0  0  0  0  0  0
    1.1069   -4.3040    0.1089 H   0  0  0  0  0  0  0  0  0  0  0  0
    2.1245   -5.8885   -0.9700 C   0  0  0  0  0  0  0  0  0  0  0  0
    1.2035   -6.3035   -0.9824 H   0  0  0  0  0  0  0  0  0  0  0  0
    2.4712   -5.8733   -1.9173 H   0  0  0  0  0  0  0  0  0  0  0  0
    3.0406   -6.6413   -0.0737 C   0  0  0  0  0  0  0  0  0  0  0  0
    2.5252   -7.0851    0.6710 H   0  0  0  0  0  0  0  0  0  0  0  0
    3.5295   -7.3580   -0.5867 H   0  0  0  0  0  0  0  0  0  0  0  0
    4.0061   -5.6281    0.4770 C   0  0  0  0  0  0  0  0  0  0  0  0
    4.2991   -5.8661    1.4026 H   0  0  0  0  0  0  0  0  0  0  0  0
    4.8095   -5.5302   -0.1115 H   0  0  0  0  0  0  0  0  0  0  0  0
  1  5  1  0
  5  6  2  0
  6  8  1  0
  8 10  2  0
 10 12  1  0
 12  5  1  0
  1  2  1  0
  1  3  1  0
  1  4  1  0
  6  7  1  0
  8  9  1  0
 10 11  1  0
 12 13  1  0
 14 18  1  0
 18 19  2  0
 18 20  1  0
 20 21  1  0
 21 24  1  0
 24 27  1  0
 27 30  1  0
 30 20  1  0
 14 15  1  0
 14 16  1  0
 14 17  1  0
 21 22  1  0
 21 23  1  0
 24 25  1  0
 24 26  1  0
 27 28  1  0
 27 29  1  0
 30 31  1  0
 30 32  1  0
M  CHG  1   8   1
M  END
>  <PDB_ID>  (72) 
pdb6jpm

>  <RESIDUE_NAME>  (72) 
HIP   PRO

>  <FRAG_NAME>  (72) 
MIMM   N1PA

>  <FRAG_ATOM_NUM>  (72) 
fragi: 13  fragj: 19

>  <atom.prop.CHAIN_ID>  (72) 
A A A A A A A A A A A A A Z Z Z Z Z Z Z Z Z Z Z Z Z Z Z Z Z Z Z

>  <atom.prop.IS_HEAVY_ATOM>  (72) 
1 0 0 0 1 1 0 1 0 1 0 1 0 1 0 0 0 1 1 1 1 0 0 1 0 0 1 0 0 1 0 0

>  <DIFUSE_FUNC_ATOM>  (72) 
n/a

>  <FINAL_SINGLE_POINT_ENERGY>  (72) 
0

>  <NONCOV_INTER_ENERGY_QM>  (72) 
0

>  <FF_Energy>  (72) 
-18.67

>  <QM_Energy>  (72) 
-25.16

>  <Index>  (72) 
997

$$$$
MIMM-pdb6jpm-B-HIP-32:N1PA-pdb6jpm-B-PRO-118
     RDKit          3D

 32 32  0  0  0  0  0  0  0  0999 V2000
   -0.6722    2.7319    0.0003 C   0  0  0  0  0  0  0  0  0  0  0  0
   -1.5419    2.7820   -0.4995 H   0  0  0  0  0  0  0  0  0  0  0  0
    0.0051    3.3049   -0.4704 H   0  0  0  0  0  0  0  0  0  0  0  0
   -0.8220    3.1203    1.0077 H   0  0  0  0  0  0  0  0  0  0  0  0
   -0.1943    1.3195   -0.0188 C   0  0  0  0  0  0  0  0  0  0  0  0
    1.0570    0.8018    0.0000 C   0  0  0  0  0  0  0  0  0  0  0  0
    1.9109    1.3135    0.0036 H   0  0  0  0  0  0  0  0  0  0  0  0
    0.9279   -0.5679    0.0140 N   0  0  0  0  0  4  0  0  0  0  0  0
    1.6845   -1.2229    0.0271 H   0  0  0  0  0  0  0  0  0  0  0  0
   -0.3572   -0.8779    0.0056 C   0  0  0  0  0  0  0  0  0  0  0  0
   -0.7337   -1.7988    0.0048 H   0  0  0  0  0  0  0  0  0  0  0  0
   -1.0570    0.2453    0.0000 N   0  0  0  0  0  0  0  0  0  0  0  0
   -2.0547    0.3062    0.0073 H   0  0  0  0  0  0  0  0  0  0  0  0
    4.7413   -3.0478    1.7360 C   0  0  0  0  0  0  0  0  0  0  0  0
    5.3143   -3.8509    1.5436 H   0  0  0  0  0  0  0  0  0  0  0  0
    5.3396   -2.1466    1.6018 H   0  0  0  0  0  0  0  0  0  0  0  0
    4.3778   -3.1199    2.7610 H   0  0  0  0  0  0  0  0  0  0  0  0
    3.5595   -3.0611    0.7605 C   0  0  0  0  0  0  0  0  0  0  0  0
    3.0194   -2.0074    0.4074 O   0  0  0  0  0  0  0  0  0  0  0  0
    3.1501   -4.2470    0.2891 N   0  0  0  0  0  0  0  0  0  0  0  0
    1.9780   -4.4205   -0.5845 C   0  0  0  0  0  0  0  0  0  0  0  0
    2.0871   -3.8875   -1.4339 H   0  0  0  0  0  0  0  0  0  0  0  0
    1.0524   -4.1508   -0.0760 H   0  0  0  0  0  0  0  0  0  0  0  0
    1.9858   -5.9162   -0.9082 C   0  0  0  0  0  0  0  0  0  0  0  0
    1.2837   -6.3980   -0.3688 H   0  0  0  0  0  0  0  0  0  0  0  0
    1.7897   -6.0676   -1.8853 H   0  0  0  0  0  0  0  0  0  0  0  0
    3.3510   -6.3961   -0.5564 C   0  0  0  0  0  0  0  0  0  0  0  0
    3.3109   -7.3625   -0.2411 H   0  0  0  0  0  0  0  0  0  0  0  0
    3.9488   -6.3811   -1.3794 H   0  0  0  0  0  0  0  0  0  0  0  0
    3.8799   -5.5078    0.5053 C   0  0  0  0  0  0  0  0  0  0  0  0
    3.6910   -5.8640    1.4237 H   0  0  0  0  0  0  0  0  0  0  0  0
    4.8678   -5.3565    0.4127 H   0  0  0  0  0  0  0  0  0  0  0  0
  1  5  1  0
  5  6  2  0
  6  8  1  0
  8 10  2  0
 10 12  1  0
 12  5  1  0
  1  2  1  0
  1  3  1  0
  1  4  1  0
  6  7  1  0
  8  9  1  0
 10 11  1  0
 12 13  1  0
 14 18  1  0
 18 19  2  0
 18 20  1  0
 20 21  1  0
 21 24  1  0
 24 27  1  0
 27 30  1  0
 30 20  1  0
 14 15  1  0
 14 16  1  0
 14 17  1  0
 21 22  1  0
 21 23  1  0
 24 25  1  0
 24 26  1  0
 27 28  1  0
 27 29  1  0
 30 31  1  0
 30 32  1  0
M  CHG  1   8   1
M  END
>  <PDB_ID>  (73) 
pdb6jpm

>  <RESIDUE_NAME>  (73) 
HIP   PRO

>  <FRAG_NAME>  (73) 
MIMM   N1PA

>  <FRAG_ATOM_NUM>  (73) 
fragi: 13  fragj: 19

>  <atom.prop.CHAIN_ID>  (73) 
A A A A A A A A A A A A A Z Z Z Z Z Z Z Z Z Z Z Z Z Z Z Z Z Z Z

>  <atom.prop.IS_HEAVY_ATOM>  (73) 
1 0 0 0 1 1 0 1 0 1 0 1 0 1 0 0 0 1 1 1 1 0 0 1 0 0 1 0 0 1 0 0

>  <DIFUSE_FUNC_ATOM>  (73) 
n/a

>  <FINAL_SINGLE_POINT_ENERGY>  (73) 
0

>  <NONCOV_INTER_ENERGY_QM>  (73) 
0

>  <FF_Energy>  (73) 
-16.68

>  <QM_Energy>  (73) 
-26.47

>  <Index>  (73) 
998

$$$$
MIMM-pdb5k1r-A-HIP-21:N1PA-pdb5k1r-A-PRO-472
     RDKit          3D

 32 32  0  0  0  0  0  0  0  0999 V2000
   -0.6538    2.7408    0.0153 C   0  0  0  0  0  0  0  0  0  0  0  0
   -1.4835    2.7888   -0.4833 H   0  0  0  0  0  0  0  0  0  0  0  0
    0.0249    3.2808   -0.4189 H   0  0  0  0  0  0  0  0  0  0  0  0
   -0.8232    3.1280    1.0200 H   0  0  0  0  0  0  0  0  0  0  0  0
   -0.1869    1.3122    0.0016 C   0  0  0  0  0  0  0  0  0  0  0  0
    1.0592    0.7792    0.0000 C   0  0  0  0  0  0  0  0  0  0  0  0
    1.8610    1.2498    0.0021 H   0  0  0  0  0  0  0  0  0  0  0  0
    0.9169   -0.5886   -0.0002 N   0  0  0  0  0  4  0  0  0  0  0  0
    1.5609   -1.1578   -0.0039 H   0  0  0  0  0  0  0  0  0  0  0  0
   -0.3696   -0.8869    0.0037 C   0  0  0  0  0  0  0  0  0  0  0  0
   -0.7300   -1.7440   -0.0015 H   0  0  0  0  0  0  0  0  0  0  0  0
   -1.0592    0.2412   -0.0000 N   0  0  0  0  0  0  0  0  0  0  0  0
   -2.0560    0.3122   -0.0039 H   0  0  0  0  0  0  0  0  0  0  0  0
    4.1950   -3.5286    0.6938 C   0  0  0  0  0  0  0  0  0  0  0  0
    4.5795   -4.4190    0.6823 H   0  0  0  0  0  0  0  0  0  0  0  0
    4.9877   -2.7972    0.8511 H   0  0  0  0  0  0  0  0  0  0  0  0
    3.4868   -3.4733    1.5205 H   0  0  0  0  0  0  0  0  0  0  0  0
    3.4881   -3.2942   -0.6431 C   0  0  0  0  0  0  0  0  0  0  0  0
    2.7443   -2.3168   -0.7714 O   0  0  0  0  0  0  0  0  0  0  0  0
    3.6537   -4.1748   -1.6548 N   0  0  0  0  0  0  0  0  0  0  0  0
    3.0617   -3.8759   -2.9726 C   0  0  0  0  0  0  0  0  0  0  0  0
    3.4018   -3.0299   -3.3049 H   0  0  0  0  0  0  0  0  0  0  0  0
    1.9720   -3.8470   -2.9823 H   0  0  0  0  0  0  0  0  0  0  0  0
    3.5898   -5.0167   -3.8730 C   0  0  0  0  0  0  0  0  0  0  0  0
    2.8841   -5.3119   -4.4701 H   0  0  0  0  0  0  0  0  0  0  0  0
    4.3557   -4.7037   -4.3793 H   0  0  0  0  0  0  0  0  0  0  0  0
    3.9796   -6.0956   -2.9660 C   0  0  0  0  0  0  0  0  0  0  0  0
    3.2225   -6.6851   -2.8243 H   0  0  0  0  0  0  0  0  0  0  0  0
    4.7226   -6.5867   -3.3517 H   0  0  0  0  0  0  0  0  0  0  0  0
    4.3958   -5.4497   -1.6646 C   0  0  0  0  0  0  0  0  0  0  0  0
    4.1289   -6.0020   -0.9130 H   0  0  0  0  0  0  0  0  0  0  0  0
    5.3522   -5.2835   -1.6608 H   0  0  0  0  0  0  0  0  0  0  0  0
  1  5  1  0
  5  6  2  0
  6  8  1  0
  8 10  2  0
 10 12  1  0
 12  5  1  0
  1  2  1  0
  1  3  1  0
  1  4  1  0
  6  7  1  0
  8  9  1  0
 10 11  1  0
 12 13  1  0
 14 18  1  0
 18 19  2  0
 18 20  1  0
 20 21  1  0
 21 24  1  0
 24 27  1  0
 27 30  1  0
 30 20  1  0
 14 15  1  0
 14 16  1  0
 14 17  1  0
 21 22  1  0
 21 23  1  0
 24 25  1  0
 24 26  1  0
 27 28  1  0
 27 29  1  0
 30 31  1  0
 30 32  1  0
M  CHG  1   8   1
M  END
>  <PDB_ID>  (74) 
pdb5k1r

>  <RESIDUE_NAME>  (74) 
HIP   PRO

>  <FRAG_NAME>  (74) 
MIMM   N1PA

>  <FRAG_ATOM_NUM>  (74) 
fragi: 13  fragj: 19

>  <atom.prop.CHAIN_ID>  (74) 
A A A A A A A A A A A A A Z Z Z Z Z Z Z Z Z Z Z Z Z Z Z Z Z Z Z

>  <atom.prop.IS_HEAVY_ATOM>  (74) 
1 0 0 0 1 1 0 1 0 1 0 1 0 1 0 0 0 1 1 1 1 0 0 1 0 0 1 0 0 1 0 0

>  <DIFUSE_FUNC_ATOM>  (74) 
n/a

>  <FINAL_SINGLE_POINT_ENERGY>  (74) 
0

>  <NONCOV_INTER_ENERGY_QM>  (74) 
0

>  <FF_Energy>  (74) 
-17.74

>  <QM_Energy>  (74) 
-23.69

>  <Index>  (74) 
1010

$$$$
MIMM-pdb5k1r-B-HIP-21:N1PA-pdb5k1r-B-PRO-472
     RDKit          3D

 32 32  0  0  0  0  0  0  0  0999 V2000
   -0.6525    2.7316   -0.0109 C   0  0  0  0  0  0  0  0  0  0  0  0
    0.0130    3.2618    0.4555 H   0  0  0  0  0  0  0  0  0  0  0  0
   -1.4958    2.7675    0.4672 H   0  0  0  0  0  0  0  0  0  0  0  0
   -0.7962    3.1469   -1.0084 H   0  0  0  0  0  0  0  0  0  0  0  0
   -0.1864    1.3096   -0.0104 C   0  0  0  0  0  0  0  0  0  0  0  0
    1.0593    0.7773    0.0000 C   0  0  0  0  0  0  0  0  0  0  0  0
    1.8617    1.2490   -0.0017 H   0  0  0  0  0  0  0  0  0  0  0  0
    0.9179   -0.5881    0.0044 N   0  0  0  0  0  4  0  0  0  0  0  0
    1.5619   -1.1580    0.0073 H   0  0  0  0  0  0  0  0  0  0  0  0
   -0.3710   -0.8848    0.0009 C   0  0  0  0  0  0  0  0  0  0  0  0
   -0.7315   -1.7422    0.0060 H   0  0  0  0  0  0  0  0  0  0  0  0
   -1.0593    0.2434   -0.0000 N   0  0  0  0  0  0  0  0  0  0  0  0
   -2.0564    0.3137    0.0050 H   0  0  0  0  0  0  0  0  0  0  0  0
   -1.9533   -5.0151   -0.7943 C   0  0  0  0  0  0  0  0  0  0  0  0
   -1.7631   -5.9603   -0.8981 H   0  0  0  0  0  0  0  0  0  0  0  0
   -3.0292   -4.8535   -0.8613 H   0  0  0  0  0  0  0  0  0  0  0  0
   -1.4476   -4.4752   -1.5948 H   0  0  0  0  0  0  0  0  0  0  0  0
   -1.4167   -4.5645    0.5653 C   0  0  0  0  0  0  0  0  0  0  0  0
   -1.4516   -3.3669    0.8659 O   0  0  0  0  0  0  0  0  0  0  0  0
   -0.9069   -5.4753    1.4142 N   0  0  0  0  0  0  0  0  0  0  0  0
   -0.4719   -5.1271    2.7814 C   0  0  0  0  0  0  0  0  0  0  0  0
   -1.2216   -4.7723    3.2860 H   0  0  0  0  0  0  0  0  0  0  0  0
    0.3645   -4.4322    2.8559 H   0  0  0  0  0  0  0  0  0  0  0  0
   -0.0694   -6.4825    3.3775 C   0  0  0  0  0  0  0  0  0  0  0  0
    0.7227   -6.3736    3.9266 H   0  0  0  0  0  0  0  0  0  0  0  0
   -0.8036   -6.8384    3.9015 H   0  0  0  0  0  0  0  0  0  0  0  0
    0.2163   -7.3594    2.2127 C   0  0  0  0  0  0  0  0  0  0  0  0
    1.1515   -7.2729    1.9669 H   0  0  0  0  0  0  0  0  0  0  0  0
    0.0105   -8.2781    2.4434 H   0  0  0  0  0  0  0  0  0  0  0  0
   -0.6599   -6.8926    1.0989 C   0  0  0  0  0  0  0  0  0  0  0  0
   -0.1976   -6.9730    0.2506 H   0  0  0  0  0  0  0  0  0  0  0  0
   -1.4936   -7.3879    1.0971 H   0  0  0  0  0  0  0  0  0  0  0  0
  1  5  1  0
  5  6  2  0
  6  8  1  0
  8 10  2  0
 10 12  1  0
 12  5  1  0
  1  2  1  0
  1  3  1  0
  1  4  1  0
  6  7  1  0
  8  9  1  0
 10 11  1  0
 12 13  1  0
 14 18  1  0
 18 19  2  0
 18 20  1  0
 20 21  1  0
 21 24  1  0
 24 27  1  0
 27 30  1  0
 30 20  1  0
 14 15  1  0
 14 16  1  0
 14 17  1  0
 21 22  1  0
 21 23  1  0
 24 25  1  0
 24 26  1  0
 27 28  1  0
 27 29  1  0
 30 31  1  0
 30 32  1  0
M  CHG  1   8   1
M  END
>  <PDB_ID>  (75) 
pdb5k1r

>  <RESIDUE_NAME>  (75) 
HIP   PRO

>  <FRAG_NAME>  (75) 
MIMM   N1PA

>  <FRAG_ATOM_NUM>  (75) 
fragi: 13  fragj: 19

>  <atom.prop.CHAIN_ID>  (75) 
A A A A A A A A A A A A A Z Z Z Z Z Z Z Z Z Z Z Z Z Z Z Z Z Z Z

>  <atom.prop.IS_HEAVY_ATOM>  (75) 
1 0 0 0 1 1 0 1 0 1 0 1 0 1 0 0 0 1 1 1 1 0 0 1 0 0 1 0 0 1 0 0

>  <DIFUSE_FUNC_ATOM>  (75) 
n/a

>  <FINAL_SINGLE_POINT_ENERGY>  (75) 
0

>  <NONCOV_INTER_ENERGY_QM>  (75) 
0

>  <FF_Energy>  (75) 
-9.14

>  <QM_Energy>  (75) 
-19.08

>  <Index>  (75) 
1011

$$$$
MIMM-pdb5k81-D-HIP-65:N1PA-pdb5k81-D-PRO-60
     RDKit          3D

 32 32  0  0  0  0  0  0  0  0999 V2000
   -0.6655    2.7395    0.0031 C   0  0  0  0  0  0  0  0  0  0  0  0
   -0.3338    3.1837   -0.8377 H   0  0  0  0  0  0  0  0  0  0  0  0
   -0.2564    3.2118    0.7925 H   0  0  0  0  0  0  0  0  0  0  0  0
   -1.7495    2.8425    0.0533 H   0  0  0  0  0  0  0  0  0  0  0  0
   -0.1911    1.3216    0.0059 C   0  0  0  0  0  0  0  0  0  0  0  0
    1.0567    0.8000    0.0000 C   0  0  0  0  0  0  0  0  0  0  0  0
    1.9135    1.3103   -0.0017 H   0  0  0  0  0  0  0  0  0  0  0  0
    0.9262   -0.5678   -0.0036 N   0  0  0  0  0  4  0  0  0  0  0  0
    1.6823   -1.2243   -0.0084 H   0  0  0  0  0  0  0  0  0  0  0  0
   -0.3587   -0.8763   -0.0027 C   0  0  0  0  0  0  0  0  0  0  0  0
   -0.7351   -1.7983   -0.0023 H   0  0  0  0  0  0  0  0  0  0  0  0
   -1.0567    0.2444   -0.0000 N   0  0  0  0  0  0  0  0  0  0  0  0
   -2.0540    0.3089   -0.0023 H   0  0  0  0  0  0  0  0  0  0  0  0
   -1.2173   -5.5187    0.0816 C   0  0  0  0  0  0  0  0  0  0  0  0
   -0.4308   -6.1140    0.2577 H   0  0  0  0  0  0  0  0  0  0  0  0
   -1.4116   -4.9248    0.9747 H   0  0  0  0  0  0  0  0  0  0  0  0
   -2.0665   -6.1669   -0.1347 H   0  0  0  0  0  0  0  0  0  0  0  0
   -0.8530   -4.5973   -1.1033 C   0  0  0  0  0  0  0  0  0  0  0  0
   -1.2157   -3.4155   -1.1016 O   0  0  0  0  0  0  0  0  0  0  0  0
   -0.1405   -5.1364   -2.1169 N   0  0  0  0  0  0  0  0  0  0  0  0
    0.6503   -4.2802   -3.0141 C   0  0  0  0  0  0  0  0  0  0  0  0
    1.3099   -3.7053   -2.4535 H   0  0  0  0  0  0  0  0  0  0  0  0
    0.1157   -3.6461   -3.7214 H   0  0  0  0  0  0  0  0  0  0  0  0
    1.4970   -5.2948   -3.7896 C   0  0  0  0  0  0  0  0  0  0  0  0
    1.6972   -4.9523   -4.7100 H   0  0  0  0  0  0  0  0  0  0  0  0
    2.3599   -5.4693   -3.3115 H   0  0  0  0  0  0  0  0  0  0  0  0
    0.6499   -6.5070   -3.8369 C   0  0  0  0  0  0  0  0  0  0  0  0
   -0.0320   -6.4405   -4.5720 H   0  0  0  0  0  0  0  0  0  0  0  0
    1.2074   -7.3285   -3.9873 H   0  0  0  0  0  0  0  0  0  0  0  0
   -0.0215   -6.5590   -2.4922 C   0  0  0  0  0  0  0  0  0  0  0  0
   -0.9253   -6.9816   -2.5496 H   0  0  0  0  0  0  0  0  0  0  0  0
    0.5356   -7.0520   -1.8223 H   0  0  0  0  0  0  0  0  0  0  0  0
  1  5  1  0
  5  6  2  0
  6  8  1  0
  8 10  2  0
 10 12  1  0
 12  5  1  0
  1  2  1  0
  1  3  1  0
  1  4  1  0
  6  7  1  0
  8  9  1  0
 10 11  1  0
 12 13  1  0
 14 18  1  0
 18 19  2  0
 18 20  1  0
 20 21  1  0
 21 24  1  0
 24 27  1  0
 27 30  1  0
 30 20  1  0
 14 15  1  0
 14 16  1  0
 14 17  1  0
 21 22  1  0
 21 23  1  0
 24 25  1  0
 24 26  1  0
 27 28  1  0
 27 29  1  0
 30 31  1  0
 30 32  1  0
M  CHG  1   8   1
M  END
>  <PDB_ID>  (76) 
pdb5k81

>  <RESIDUE_NAME>  (76) 
HIP   PRO

>  <FRAG_NAME>  (76) 
MIMM   N1PA

>  <FRAG_ATOM_NUM>  (76) 
fragi: 13  fragj: 19

>  <atom.prop.CHAIN_ID>  (76) 
A A A A A A A A A A A A A Z Z Z Z Z Z Z Z Z Z Z Z Z Z Z Z Z Z Z

>  <atom.prop.IS_HEAVY_ATOM>  (76) 
1 0 0 0 1 1 0 1 0 1 0 1 0 1 0 0 0 1 1 1 1 0 0 1 0 0 1 0 0 1 0 0

>  <DIFUSE_FUNC_ATOM>  (76) 
n/a

>  <FINAL_SINGLE_POINT_ENERGY>  (76) 
0

>  <NONCOV_INTER_ENERGY_QM>  (76) 
0

>  <FF_Energy>  (76) 
-10.12

>  <QM_Energy>  (76) 
-17.67

>  <Index>  (76) 
1013

$$$$
MIMM-pdb6nes-B-HIP-201:N1PA-pdb6nes-B-PRO-256
     RDKit          3D

 32 32  0  0  0  0  0  0  0  0999 V2000
   -0.6440    2.7312   -0.0549 C   0  0  0  0  0  0  0  0  0  0  0  0
    0.0622    3.2942    0.3019 H   0  0  0  0  0  0  0  0  0  0  0  0
   -1.4392    2.8088    0.4946 H   0  0  0  0  0  0  0  0  0  0  0  0
   -0.8782    3.0532   -1.0696 H   0  0  0  0  0  0  0  0  0  0  0  0
   -0.1773    1.3117   -0.0035 C   0  0  0  0  0  0  0  0  0  0  0  0
    1.0648    0.7745   -0.0000 C   0  0  0  0  0  0  0  0  0  0  0  0
    1.8698    1.2412   -0.0009 H   0  0  0  0  0  0  0  0  0  0  0  0
    0.9141   -0.5905    0.0033 N   0  0  0  0  0  4  0  0  0  0  0  0
    1.6615   -1.2587    0.0056 H   0  0  0  0  0  0  0  0  0  0  0  0
   -0.3747   -0.8843    0.0011 C   0  0  0  0  0  0  0  0  0  0  0  0
   -0.7368   -1.7411    0.0002 H   0  0  0  0  0  0  0  0  0  0  0  0
   -1.0648    0.2454    0.0000 N   0  0  0  0  0  0  0  0  0  0  0  0
   -1.9219    0.3082    0.0010 H   0  0  0  0  0  0  0  0  0  0  0  0
   -5.6168    2.7771   -0.1703 C   0  0  0  0  0  0  0  0  0  0  0  0
   -6.5556    2.6426    0.0349 H   0  0  0  0  0  0  0  0  0  0  0  0
   -5.3330    3.7919    0.1088 H   0  0  0  0  0  0  0  0  0  0  0  0
   -5.4738    2.5880   -1.2342 H   0  0  0  0  0  0  0  0  0  0  0  0
   -4.7608    1.8258    0.6336 C   0  0  0  0  0  0  0  0  0  0  0  0
   -3.5850    1.6175    0.2905 O   0  0  0  0  0  0  0  0  0  0  0  0
   -5.3253    1.1880    1.6713 N   0  0  0  0  0  0  0  0  0  0  0  0
   -4.5351    0.2623    2.4978 C   0  0  0  0  0  0  0  0  0  0  0  0
   -3.7162    0.6956    2.7821 H   0  0  0  0  0  0  0  0  0  0  0  0
   -4.2968   -0.6792    2.0031 H   0  0  0  0  0  0  0  0  0  0  0  0
   -5.4439    0.0121    3.7154 C   0  0  0  0  0  0  0  0  0  0  0  0
   -5.3425   -0.9014    4.0241 H   0  0  0  0  0  0  0  0  0  0  0  0
   -5.2220    0.6311    4.4285 H   0  0  0  0  0  0  0  0  0  0  0  0
   -6.8635    0.2641    3.1845 C   0  0  0  0  0  0  0  0  0  0  0  0
   -7.2086   -0.5394    2.7655 H   0  0  0  0  0  0  0  0  0  0  0  0
   -7.4454    0.5362    3.9105 H   0  0  0  0  0  0  0  0  0  0  0  0
   -6.7024    1.3812    2.1693 C   0  0  0  0  0  0  0  0  0  0  0  0
   -7.3465    1.2895    1.4499 H   0  0  0  0  0  0  0  0  0  0  0  0
   -6.7992    2.2485    2.5921 H   0  0  0  0  0  0  0  0  0  0  0  0
  1  5  1  0
  5  6  2  0
  6  8  1  0
  8 10  2  0
 10 12  1  0
 12  5  1  0
  1  2  1  0
  1  3  1  0
  1  4  1  0
  6  7  1  0
  8  9  1  0
 10 11  1  0
 12 13  1  0
 14 18  1  0
 18 19  2  0
 18 20  1  0
 20 21  1  0
 21 24  1  0
 24 27  1  0
 27 30  1  0
 30 20  1  0
 14 15  1  0
 14 16  1  0
 14 17  1  0
 21 22  1  0
 21 23  1  0
 24 25  1  0
 24 26  1  0
 27 28  1  0
 27 29  1  0
 30 31  1  0
 30 32  1  0
M  CHG  1   8   1
M  END
>  <PDB_ID>  (77) 
pdb6nes

>  <RESIDUE_NAME>  (77) 
HIP   PRO

>  <FRAG_NAME>  (77) 
MIMM   N1PA

>  <FRAG_ATOM_NUM>  (77) 
fragi: 13  fragj: 19

>  <atom.prop.CHAIN_ID>  (77) 
A A A A A A A A A A A A A Z Z Z Z Z Z Z Z Z Z Z Z Z Z Z Z Z Z Z

>  <atom.prop.IS_HEAVY_ATOM>  (77) 
1 0 0 0 1 1 0 1 0 1 0 1 0 1 0 0 0 1 1 1 1 0 0 1 0 0 1 0 0 1 0 0

>  <DIFUSE_FUNC_ATOM>  (77) 
n/a

>  <FINAL_SINGLE_POINT_ENERGY>  (77) 
0

>  <NONCOV_INTER_ENERGY_QM>  (77) 
0

>  <FF_Energy>  (77) 
-17.93

>  <QM_Energy>  (77) 
-23.09

>  <Index>  (77) 
1022

$$$$
MIMM-pdb6nw0-B-HIP-18:N1PA-pdb6nw0-B-PRO-15
     RDKit          3D

 32 32  0  0  0  0  0  0  0  0999 V2000
   -0.6428    2.7267    0.0744 C   0  0  0  0  0  0  0  0  0  0  0  0
   -0.0624    3.2218    0.7337 H   0  0  0  0  0  0  0  0  0  0  0  0
   -1.5879    2.7305    0.4259 H   0  0  0  0  0  0  0  0  0  0  0  0
   -0.6183    3.2481   -0.8824 H   0  0  0  0  0  0  0  0  0  0  0  0
   -0.1744    1.3171    0.0022 C   0  0  0  0  0  0  0  0  0  0  0  0
    1.0677    0.7873    0.0000 C   0  0  0  0  0  0  0  0  0  0  0  0
    1.9274    1.2977    0.0131 H   0  0  0  0  0  0  0  0  0  0  0  0
    0.9307   -0.5678   -0.0216 N   0  0  0  0  0  4  0  0  0  0  0  0
    1.6637   -1.2430   -0.0517 H   0  0  0  0  0  0  0  0  0  0  0  0
   -0.3902   -0.8764    0.0024 C   0  0  0  0  0  0  0  0  0  0  0  0
   -0.7563   -1.7913    0.0194 H   0  0  0  0  0  0  0  0  0  0  0  0
   -1.0677    0.2548    0.0000 N   0  0  0  0  0  0  0  0  0  0  0  0
   -2.0601    0.3431   -0.0037 H   0  0  0  0  0  0  0  0  0  0  0  0
    5.2253    1.8349    1.5832 C   0  0  0  0  0  0  0  0  0  0  0  0
    5.7370    2.1720    2.3689 H   0  0  0  0  0  0  0  0  0  0  0  0
    4.7442    0.9089    1.8980 H   0  0  0  0  0  0  0  0  0  0  0  0
    5.7950    1.6939    0.6646 H   0  0  0  0  0  0  0  0  0  0  0  0
    4.1495    2.8552    1.2620 C   0  0  0  0  0  0  0  0  0  0  0  0
    3.4688    2.6684    0.2599 O   0  0  0  0  0  0  0  0  0  0  0  0
    3.9536    3.9356    2.0672 N   0  0  0  0  0  0  0  0  0  0  0  0
    2.8923    4.8986    1.7847 C   0  0  0  0  0  0  0  0  0  0  0  0
    1.9802    4.4953    1.9674 H   0  0  0  0  0  0  0  0  0  0  0  0
    2.9345    5.2850    0.7663 H   0  0  0  0  0  0  0  0  0  0  0  0
    3.1218    6.0394    2.7977 C   0  0  0  0  0  0  0  0  0  0  0  0
    3.6022    6.8062    2.3572 H   0  0  0  0  0  0  0  0  0  0  0  0
    2.2422    6.3744    3.1515 H   0  0  0  0  0  0  0  0  0  0  0  0
    3.9494    5.4449    3.8911 C   0  0  0  0  0  0  0  0  0  0  0  0
    4.5897    6.1276    4.2646 H   0  0  0  0  0  0  0  0  0  0  0  0
    3.3628    5.1183    4.6431 H   0  0  0  0  0  0  0  0  0  0  0  0
    4.7138    4.2850    3.2725 C   0  0  0  0  0  0  0  0  0  0  0  0
    5.6513    4.5595    3.0366 H   0  0  0  0  0  0  0  0  0  0  0  0
    4.7571    3.5058    3.9067 H   0  0  0  0  0  0  0  0  0  0  0  0
  1  5  1  0
  5  6  2  0
  6  8  1  0
  8 10  2  0
 10 12  1  0
 12  5  1  0
  1  2  1  0
  1  3  1  0
  1  4  1  0
  6  7  1  0
  8  9  1  0
 10 11  1  0
 12 13  1  0
 14 18  1  0
 18 19  2  0
 18 20  1  0
 20 21  1  0
 21 24  1  0
 24 27  1  0
 27 30  1  0
 30 20  1  0
 14 15  1  0
 14 16  1  0
 14 17  1  0
 21 22  1  0
 21 23  1  0
 24 25  1  0
 24 26  1  0
 27 28  1  0
 27 29  1  0
 30 31  1  0
 30 32  1  0
M  CHG  1   8   1
M  END
>  <PDB_ID>  (78) 
pdb6nw0

>  <RESIDUE_NAME>  (78) 
HIP   PRO

>  <FRAG_NAME>  (78) 
MIMM   N1PA

>  <FRAG_ATOM_NUM>  (78) 
fragi: 13  fragj: 19

>  <atom.prop.CHAIN_ID>  (78) 
A A A A A A A A A A A A A Z Z Z Z Z Z Z Z Z Z Z Z Z Z Z Z Z Z Z

>  <atom.prop.IS_HEAVY_ATOM>  (78) 
1 0 0 0 1 1 0 1 0 1 0 1 0 1 0 0 0 1 1 1 1 0 0 1 0 0 1 0 0 1 0 0

>  <DIFUSE_FUNC_ATOM>  (78) 
n/a

>  <FINAL_SINGLE_POINT_ENERGY>  (78) 
0

>  <NONCOV_INTER_ENERGY_QM>  (78) 
0

>  <FF_Energy>  (78) 
-7.7

>  <QM_Energy>  (78) 
-14.38

>  <Index>  (78) 
1023

$$$$
MIMM-pdb6ncw-A-HIP-110:N1PA-pdb6ncw-A-PRO-107
     RDKit          3D

 32 32  0  0  0  0  0  0  0  0999 V2000
   -0.6772    2.7353    0.0175 C   0  0  0  0  0  0  0  0  0  0  0  0
    0.0402    3.3148    0.4139 H   0  0  0  0  0  0  0  0  0  0  0  0
   -1.4951    2.7916    0.5962 H   0  0  0  0  0  0  0  0  0  0  0  0
   -0.9213    3.1027   -0.9793 H   0  0  0  0  0  0  0  0  0  0  0  0
   -0.1955    1.3198    0.0193 C   0  0  0  0  0  0  0  0  0  0  0  0
    1.0565    0.8020    0.0000 C   0  0  0  0  0  0  0  0  0  0  0  0
    1.9094    1.3145   -0.0032 H   0  0  0  0  0  0  0  0  0  0  0  0
    0.9275   -0.5664   -0.0129 N   0  0  0  0  0  4  0  0  0  0  0  0
    1.6851   -1.2214   -0.0260 H   0  0  0  0  0  0  0  0  0  0  0  0
   -0.3566   -0.8767   -0.0070 C   0  0  0  0  0  0  0  0  0  0  0  0
   -0.7320   -1.7994   -0.0064 H   0  0  0  0  0  0  0  0  0  0  0  0
   -1.0565    0.2440   -0.0000 N   0  0  0  0  0  0  0  0  0  0  0  0
   -2.0544    0.3048   -0.0078 H   0  0  0  0  0  0  0  0  0  0  0  0
   -0.2014   -5.4419   -0.1512 C   0  0  0  0  0  0  0  0  0  0  0  0
    0.1079   -6.3970   -0.1345 H   0  0  0  0  0  0  0  0  0  0  0  0
   -0.4905   -5.1430    0.8564 H   0  0  0  0  0  0  0  0  0  0  0  0
   -1.0519   -5.3562   -0.8276 H   0  0  0  0  0  0  0  0  0  0  0  0
    0.9513   -4.5691   -0.6517 C   0  0  0  0  0  0  0  0  0  0  0  0
    1.0835   -3.4112   -0.2460 O   0  0  0  0  0  0  0  0  0  0  0  0
    1.8132   -5.1005   -1.5168 N   0  0  0  0  0  0  0  0  0  0  0  0
    2.8822   -4.2738   -2.0848 C   0  0  0  0  0  0  0  0  0  0  0  0
    3.3921   -3.8029   -1.3576 H   0  0  0  0  0  0  0  0  0  0  0  0
    2.4740   -3.5597   -2.8001 H   0  0  0  0  0  0  0  0  0  0  0  0
    3.7976   -5.2963   -2.7687 C   0  0  0  0  0  0  0  0  0  0  0  0
    4.2273   -4.8980   -3.5775 H   0  0  0  0  0  0  0  0  0  0  0  0
    4.5013   -5.6170   -2.1381 H   0  0  0  0  0  0  0  0  0  0  0  0
    2.8672   -6.4034   -3.1455 C   0  0  0  0  0  0  0  0  0  0  0  0
    2.4203   -6.2053   -4.0259 H   0  0  0  0  0  0  0  0  0  0  0  0
    3.3693   -7.2717   -3.2323 H   0  0  0  0  0  0  0  0  0  0  0  0
    1.8505   -6.4819   -2.0360 C   0  0  0  0  0  0  0  0  0  0  0  0
    0.9530   -6.7504   -2.3807 H   0  0  0  0  0  0  0  0  0  0  0  0
    2.1381   -7.1173   -1.3195 H   0  0  0  0  0  0  0  0  0  0  0  0
  1  5  1  0
  5  6  2  0
  6  8  1  0
  8 10  2  0
 10 12  1  0
 12  5  1  0
  1  2  1  0
  1  3  1  0
  1  4  1  0
  6  7  1  0
  8  9  1  0
 10 11  1  0
 12 13  1  0
 14 18  1  0
 18 19  2  0
 18 20  1  0
 20 21  1  0
 21 24  1  0
 24 27  1  0
 27 30  1  0
 30 20  1  0
 14 15  1  0
 14 16  1  0
 14 17  1  0
 21 22  1  0
 21 23  1  0
 24 25  1  0
 24 26  1  0
 27 28  1  0
 27 29  1  0
 30 31  1  0
 30 32  1  0
M  CHG  1   8   1
M  END
>  <PDB_ID>  (79) 
pdb6ncw

>  <RESIDUE_NAME>  (79) 
HIP   PRO

>  <FRAG_NAME>  (79) 
MIMM   N1PA

>  <FRAG_ATOM_NUM>  (79) 
fragi: 13  fragj: 19

>  <atom.prop.CHAIN_ID>  (79) 
A A A A A A A A A A A A A Z Z Z Z Z Z Z Z Z Z Z Z Z Z Z Z Z Z Z

>  <atom.prop.IS_HEAVY_ATOM>  (79) 
1 0 0 0 1 1 0 1 0 1 0 1 0 1 0 0 0 1 1 1 1 0 0 1 0 0 1 0 0 1 0 0

>  <DIFUSE_FUNC_ATOM>  (79) 
n/a

>  <FINAL_SINGLE_POINT_ENERGY>  (79) 
0

>  <NONCOV_INTER_ENERGY_QM>  (79) 
0

>  <FF_Energy>  (79) 
-17.94

>  <QM_Energy>  (79) 
-23.7

>  <Index>  (79) 
1024

$$$$
MIMM-pdb6ncw-B-HIP-110:N1PA-pdb6ncw-B-PRO-107
     RDKit          3D

 32 32  0  0  0  0  0  0  0  0999 V2000
   -0.6755    2.7272   -0.0150 C   0  0  0  0  0  0  0  0  0  0  0  0
   -0.0643    3.2827    0.5567 H   0  0  0  0  0  0  0  0  0  0  0  0
   -1.5992    2.7558    0.3784 H   0  0  0  0  0  0  0  0  0  0  0  0
   -0.7037    3.1483   -1.0200 H   0  0  0  0  0  0  0  0  0  0  0  0
   -0.1957    1.3180    0.0118 C   0  0  0  0  0  0  0  0  0  0  0  0
    1.0565    0.8024    0.0000 C   0  0  0  0  0  0  0  0  0  0  0  0
    1.9098    1.3149   -0.0011 H   0  0  0  0  0  0  0  0  0  0  0  0
    0.9277   -0.5656   -0.0092 N   0  0  0  0  0  4  0  0  0  0  0  0
    1.6851   -1.2218   -0.0189 H   0  0  0  0  0  0  0  0  0  0  0  0
   -0.3562   -0.8755   -0.0042 C   0  0  0  0  0  0  0  0  0  0  0  0
   -0.7320   -1.7986   -0.0027 H   0  0  0  0  0  0  0  0  0  0  0  0
   -1.0565    0.2437   -0.0000 N   0  0  0  0  0  0  0  0  0  0  0  0
   -2.0545    0.3047   -0.0057 H   0  0  0  0  0  0  0  0  0  0  0  0
   -0.6684   -5.5614   -0.4750 C   0  0  0  0  0  0  0  0  0  0  0  0
   -0.3528   -6.5112   -0.4371 H   0  0  0  0  0  0  0  0  0  0  0  0
   -1.0618   -5.2760    0.5007 H   0  0  0  0  0  0  0  0  0  0  0  0
   -1.4448   -5.4845   -1.2361 H   0  0  0  0  0  0  0  0  0  0  0  0
    0.5200   -4.6686   -0.8274 C   0  0  0  0  0  0  0  0  0  0  0  0
    0.5703   -3.5078   -0.4315 O   0  0  0  0  0  0  0  0  0  0  0  0
    1.5098   -5.1900   -1.5349 N   0  0  0  0  0  0  0  0  0  0  0  0
    2.7156   -4.3958   -1.8049 C   0  0  0  0  0  0  0  0  0  0  0  0
    3.0985   -4.0283   -0.9445 H   0  0  0  0  0  0  0  0  0  0  0  0
    2.5237   -3.5923   -2.5160 H   0  0  0  0  0  0  0  0  0  0  0  0
    3.7011   -5.4285   -2.3636 C   0  0  0  0  0  0  0  0  0  0  0  0
    4.2572   -5.0269   -3.0941 H   0  0  0  0  0  0  0  0  0  0  0  0
    4.3052   -5.7682   -1.6404 H   0  0  0  0  0  0  0  0  0  0  0  0
    2.8321   -6.5242   -2.8939 C   0  0  0  0  0  0  0  0  0  0  0  0
    2.5530   -6.3220   -3.8413 H   0  0  0  0  0  0  0  0  0  0  0  0
    3.3345   -7.3984   -2.8949 H   0  0  0  0  0  0  0  0  0  0  0  0
    1.6469   -6.5850   -1.9856 C   0  0  0  0  0  0  0  0  0  0  0  0
    0.8233   -6.8783   -2.4702 H   0  0  0  0  0  0  0  0  0  0  0  0
    1.8085   -7.1904   -1.2053 H   0  0  0  0  0  0  0  0  0  0  0  0
  1  5  1  0
  5  6  2  0
  6  8  1  0
  8 10  2  0
 10 12  1  0
 12  5  1  0
  1  2  1  0
  1  3  1  0
  1  4  1  0
  6  7  1  0
  8  9  1  0
 10 11  1  0
 12 13  1  0
 14 18  1  0
 18 19  2  0
 18 20  1  0
 20 21  1  0
 21 24  1  0
 24 27  1  0
 27 30  1  0
 30 20  1  0
 14 15  1  0
 14 16  1  0
 14 17  1  0
 21 22  1  0
 21 23  1  0
 24 25  1  0
 24 26  1  0
 27 28  1  0
 27 29  1  0
 30 31  1  0
 30 32  1  0
M  CHG  1   8   1
M  END
>  <PDB_ID>  (80) 
pdb6ncw

>  <RESIDUE_NAME>  (80) 
HIP   PRO

>  <FRAG_NAME>  (80) 
MIMM   N1PA

>  <FRAG_ATOM_NUM>  (80) 
fragi: 13  fragj: 19

>  <atom.prop.CHAIN_ID>  (80) 
A A A A A A A A A A A A A Z Z Z Z Z Z Z Z Z Z Z Z Z Z Z Z Z Z Z

>  <atom.prop.IS_HEAVY_ATOM>  (80) 
1 0 0 0 1 1 0 1 0 1 0 1 0 1 0 0 0 1 1 1 1 0 0 1 0 0 1 0 0 1 0 0

>  <DIFUSE_FUNC_ATOM>  (80) 
n/a

>  <FINAL_SINGLE_POINT_ENERGY>  (80) 
0

>  <NONCOV_INTER_ENERGY_QM>  (80) 
0

>  <FF_Energy>  (80) 
-16.3

>  <QM_Energy>  (80) 
-22.82

>  <Index>  (80) 
1025

$$$$
MIMM-pdb6ncw-D-HIP-110:N1PA-pdb6ncw-D-PRO-107
     RDKit          3D

 32 32  0  0  0  0  0  0  0  0999 V2000
   -0.6733    2.7337    0.0096 C   0  0  0  0  0  0  0  0  0  0  0  0
   -1.6406    2.7390   -0.2619 H   0  0  0  0  0  0  0  0  0  0  0  0
   -0.1445    3.2448   -0.6746 H   0  0  0  0  0  0  0  0  0  0  0  0
   -0.5722    3.2269    0.9764 H   0  0  0  0  0  0  0  0  0  0  0  0
   -0.1927    1.3189    0.0162 C   0  0  0  0  0  0  0  0  0  0  0  0
    1.0554    0.8018    0.0000 C   0  0  0  0  0  0  0  0  0  0  0  0
    1.9110    1.3130   -0.0020 H   0  0  0  0  0  0  0  0  0  0  0  0
    0.9255   -0.5658   -0.0105 N   0  0  0  0  0  4  0  0  0  0  0  0
    1.6842   -1.2221   -0.0207 H   0  0  0  0  0  0  0  0  0  0  0  0
   -0.3571   -0.8768   -0.0054 C   0  0  0  0  0  0  0  0  0  0  0  0
   -0.7328   -1.7988   -0.0057 H   0  0  0  0  0  0  0  0  0  0  0  0
   -1.0554    0.2438   -0.0000 N   0  0  0  0  0  0  0  0  0  0  0  0
   -2.0533    0.3066   -0.0059 H   0  0  0  0  0  0  0  0  0  0  0  0
    3.6306   -4.3655    0.1940 C   0  0  0  0  0  0  0  0  0  0  0  0
    3.8475   -5.3454    0.2039 H   0  0  0  0  0  0  0  0  0  0  0  0
    3.6708   -3.9992   -0.8318 H   0  0  0  0  0  0  0  0  0  0  0  0
    4.3521   -3.8317    0.8125 H   0  0  0  0  0  0  0  0  0  0  0  0
    2.2228   -4.1763    0.7586 C   0  0  0  0  0  0  0  0  0  0  0  0
    1.5108   -3.2436    0.3701 O   0  0  0  0  0  0  0  0  0  0  0  0
    1.7885   -5.0467    1.6669 N   0  0  0  0  0  0  0  0  0  0  0  0
    0.4768   -4.8595    2.3037 C   0  0  0  0  0  0  0  0  0  0  0  0
   -0.2532   -4.8241    1.6099 H   0  0  0  0  0  0  0  0  0  0  0  0
    0.4629   -3.9646    2.9259 H   0  0  0  0  0  0  0  0  0  0  0  0
    0.2988   -6.1359    3.1371 C   0  0  0  0  0  0  0  0  0  0  0  0
   -0.1523   -5.9324    4.0063 H   0  0  0  0  0  0  0  0  0  0  0  0
   -0.2359   -6.8159    2.6366 H   0  0  0  0  0  0  0  0  0  0  0  0
    1.7056   -6.6300    3.3702 C   0  0  0  0  0  0  0  0  0  0  0  0
    2.0980   -6.1830    4.1801 H   0  0  0  0  0  0  0  0  0  0  0  0
    1.7008   -7.6235    3.5211 H   0  0  0  0  0  0  0  0  0  0  0  0
    2.4706   -6.2730    2.1301 C   0  0  0  0  0  0  0  0  0  0  0  0
    3.4294   -6.0831    2.3297 H   0  0  0  0  0  0  0  0  0  0  0  0
    2.4067   -6.9902    1.4370 H   0  0  0  0  0  0  0  0  0  0  0  0
  1  5  1  0
  5  6  2  0
  6  8  1  0
  8 10  2  0
 10 12  1  0
 12  5  1  0
  1  2  1  0
  1  3  1  0
  1  4  1  0
  6  7  1  0
  8  9  1  0
 10 11  1  0
 12 13  1  0
 14 18  1  0
 18 19  2  0
 18 20  1  0
 20 21  1  0
 21 24  1  0
 24 27  1  0
 27 30  1  0
 30 20  1  0
 14 15  1  0
 14 16  1  0
 14 17  1  0
 21 22  1  0
 21 23  1  0
 24 25  1  0
 24 26  1  0
 27 28  1  0
 27 29  1  0
 30 31  1  0
 30 32  1  0
M  CHG  1   8   1
M  END
>  <PDB_ID>  (81) 
pdb6ncw

>  <RESIDUE_NAME>  (81) 
HIP   PRO

>  <FRAG_NAME>  (81) 
MIMM   N1PA

>  <FRAG_ATOM_NUM>  (81) 
fragi: 13  fragj: 19

>  <atom.prop.CHAIN_ID>  (81) 
A A A A A A A A A A A A A Z Z Z Z Z Z Z Z Z Z Z Z Z Z Z Z Z Z Z

>  <atom.prop.IS_HEAVY_ATOM>  (81) 
1 0 0 0 1 1 0 1 0 1 0 1 0 1 0 0 0 1 1 1 1 0 0 1 0 0 1 0 0 1 0 0

>  <DIFUSE_FUNC_ATOM>  (81) 
n/a

>  <FINAL_SINGLE_POINT_ENERGY>  (81) 
0

>  <NONCOV_INTER_ENERGY_QM>  (81) 
0

>  <FF_Energy>  (81) 
-18.88

>  <QM_Energy>  (81) 
-25.08

>  <Index>  (81) 
1027

$$$$
MIMM-pdb5l12-A-HIP-36:N1PA-pdb5l12-A-PRO-68
     RDKit          3D

 32 32  0  0  0  0  0  0  0  0999 V2000
   -0.6684    2.7402    0.0079 C   0  0  0  0  0  0  0  0  0  0  0  0
   -1.1716    2.9017   -0.8516 H   0  0  0  0  0  0  0  0  0  0  0  0
    0.1388    3.3439    0.0165 H   0  0  0  0  0  0  0  0  0  0  0  0
   -1.3120    3.0012    0.8480 H   0  0  0  0  0  0  0  0  0  0  0  0
   -0.1933    1.3215    0.0145 C   0  0  0  0  0  0  0  0  0  0  0  0
    1.0564    0.8013    0.0000 C   0  0  0  0  0  0  0  0  0  0  0  0
    1.9112    1.3122   -0.0021 H   0  0  0  0  0  0  0  0  0  0  0  0
    0.9273   -0.5686   -0.0101 N   0  0  0  0  0  4  0  0  0  0  0  0
    1.6845   -1.2239   -0.0208 H   0  0  0  0  0  0  0  0  0  0  0  0
   -0.3572   -0.8770   -0.0051 C   0  0  0  0  0  0  0  0  0  0  0  0
   -0.7340   -1.7987   -0.0044 H   0  0  0  0  0  0  0  0  0  0  0  0
   -1.0564    0.2446   -0.0000 N   0  0  0  0  0  0  0  0  0  0  0  0
   -2.0541    0.3068   -0.0061 H   0  0  0  0  0  0  0  0  0  0  0  0
    3.5616   -3.4114   -2.4956 C   0  0  0  0  0  0  0  0  0  0  0  0
    3.4133   -4.2052   -3.0324 H   0  0  0  0  0  0  0  0  0  0  0  0
    3.2553   -2.5320   -3.0622 H   0  0  0  0  0  0  0  0  0  0  0  0
    4.6201   -3.3659   -2.2399 H   0  0  0  0  0  0  0  0  0  0  0  0
    2.7385   -3.5347   -1.2270 C   0  0  0  0  0  0  0  0  0  0  0  0
    2.5165   -2.5300   -0.5447 O   0  0  0  0  0  0  0  0  0  0  0  0
    2.3119   -4.7639   -0.8733 N   0  0  0  0  0  0  0  0  0  0  0  0
    1.6408   -4.8938    0.4258 C   0  0  0  0  0  0  0  0  0  0  0  0
    0.9073   -4.2644    0.5087 H   0  0  0  0  0  0  0  0  0  0  0  0
    2.3647   -4.7457    1.2271 H   0  0  0  0  0  0  0  0  0  0  0  0
    1.1111   -6.3395    0.4339 C   0  0  0  0  0  0  0  0  0  0  0  0
    1.6344   -6.8723    1.0539 H   0  0  0  0  0  0  0  0  0  0  0  0
    0.1755   -6.3412    0.6891 H   0  0  0  0  0  0  0  0  0  0  0  0
    1.2747   -6.8461   -0.9601 C   0  0  0  0  0  0  0  0  0  0  0  0
    1.4936   -7.7914   -0.9361 H   0  0  0  0  0  0  0  0  0  0  0  0
    0.4544   -6.7009   -1.4551 H   0  0  0  0  0  0  0  0  0  0  0  0
    2.3993   -6.0627   -1.5676 C   0  0  0  0  0  0  0  0  0  0  0  0
    3.2505   -6.4901   -1.3816 H   0  0  0  0  0  0  0  0  0  0  0  0
    2.2577   -5.9493   -2.5199 H   0  0  0  0  0  0  0  0  0  0  0  0
  1  5  1  0
  5  6  2  0
  6  8  1  0
  8 10  2  0
 10 12  1  0
 12  5  1  0
  1  2  1  0
  1  3  1  0
  1  4  1  0
  6  7  1  0
  8  9  1  0
 10 11  1  0
 12 13  1  0
 14 18  1  0
 18 19  2  0
 18 20  1  0
 20 21  1  0
 21 24  1  0
 24 27  1  0
 27 30  1  0
 30 20  1  0
 14 15  1  0
 14 16  1  0
 14 17  1  0
 21 22  1  0
 21 23  1  0
 24 25  1  0
 24 26  1  0
 27 28  1  0
 27 29  1  0
 30 31  1  0
 30 32  1  0
M  CHG  1   8   1
M  END
>  <PDB_ID>  (82) 
pdb5l12

>  <RESIDUE_NAME>  (82) 
HIP   PRO

>  <FRAG_NAME>  (82) 
MIMM   N1PA

>  <FRAG_ATOM_NUM>  (82) 
fragi: 13  fragj: 19

>  <atom.prop.CHAIN_ID>  (82) 
A A A A A A A A A A A A A Z Z Z Z Z Z Z Z Z Z Z Z Z Z Z Z Z Z Z

>  <atom.prop.IS_HEAVY_ATOM>  (82) 
1 0 0 0 1 1 0 1 0 1 0 1 0 1 0 0 0 1 1 1 1 0 0 1 0 0 1 0 0 1 0 0

>  <DIFUSE_FUNC_ATOM>  (82) 
n/a

>  <FINAL_SINGLE_POINT_ENERGY>  (82) 
0

>  <NONCOV_INTER_ENERGY_QM>  (82) 
0

>  <FF_Energy>  (82) 
-17.51

>  <QM_Energy>  (82) 
-24.63

>  <Index>  (82) 
1037

$$$$
MIMM-pdb5ksr-B-HIP-73:N1PA-pdb5ksr-A-PRO-191
     RDKit          3D

 32 32  0  0  0  0  0  0  0  0999 V2000
   -0.6833    2.7670    0.0205 C   0  0  0  0  0  0  0  0  0  0  0  0
   -1.6123    2.7944   -0.3480 H   0  0  0  0  0  0  0  0  0  0  0  0
   -0.0803    3.3166   -0.5577 H   0  0  0  0  0  0  0  0  0  0  0  0
   -0.6984    3.2129    1.0150 H   0  0  0  0  0  0  0  0  0  0  0  0
   -0.1961    1.3297   -0.0037 C   0  0  0  0  0  0  0  0  0  0  0  0
    1.0605    0.7993    0.0000 C   0  0  0  0  0  0  0  0  0  0  0  0
    1.9149    1.3102   -0.0001 H   0  0  0  0  0  0  0  0  0  0  0  0
    0.9333   -0.5767    0.0043 N   0  0  0  0  0  4  0  0  0  0  0  0
    1.6862   -1.2290    0.0081 H   0  0  0  0  0  0  0  0  0  0  0  0
   -0.3572   -0.8797    0.0004 C   0  0  0  0  0  0  0  0  0  0  0  0
   -0.7372   -1.8000   -0.0007 H   0  0  0  0  0  0  0  0  0  0  0  0
   -1.0605    0.2477   -0.0000 N   0  0  0  0  0  0  0  0  0  0  0  0
   -2.0563    0.3080    0.0016 H   0  0  0  0  0  0  0  0  0  0  0  0
    2.7379   -4.6361   -0.3818 C   0  0  0  0  0  0  0  0  0  0  0  0
    3.3964   -5.3738   -0.6241 H   0  0  0  0  0  0  0  0  0  0  0  0
    1.9754   -5.0592    0.2721 H   0  0  0  0  0  0  0  0  0  0  0  0
    2.2909   -4.3399   -1.3308 H   0  0  0  0  0  0  0  0  0  0  0  0
    3.5323   -3.4663    0.2375 C   0  0  0  0  0  0  0  0  0  0  0  0
    2.9764   -2.3881    0.4632 O   0  0  0  0  0  0  0  0  0  0  0  0
    4.8421   -3.6755    0.5012 N   0  0  0  0  0  0  0  0  0  0  0  0
    5.6741   -2.7304    1.2768 C   0  0  0  0  0  0  0  0  0  0  0  0
    5.1512   -2.4152    2.1157 H   0  0  0  0  0  0  0  0  0  0  0  0
    6.0918   -1.8666    0.7597 H   0  0  0  0  0  0  0  0  0  0  0  0
    6.8118   -3.6230    1.7956 C   0  0  0  0  0  0  0  0  0  0  0  0
    7.6595   -3.0963    1.8807 H   0  0  0  0  0  0  0  0  0  0  0  0
    6.5744   -4.0116    2.6864 H   0  0  0  0  0  0  0  0  0  0  0  0
    6.9407   -4.6861    0.7596 C   0  0  0  0  0  0  0  0  0  0  0  0
    7.5454   -4.3804    0.0112 H   0  0  0  0  0  0  0  0  0  0  0  0
    7.3377   -5.5233    1.1587 H   0  0  0  0  0  0  0  0  0  0  0  0
    5.5492   -4.9496    0.2458 C   0  0  0  0  0  0  0  0  0  0  0  0
    5.5522   -5.1563   -0.7312 H   0  0  0  0  0  0  0  0  0  0  0  0
    5.1098   -5.6978    0.7435 H   0  0  0  0  0  0  0  0  0  0  0  0
  1  5  1  0
  5  6  2  0
  6  8  1  0
  8 10  2  0
 10 12  1  0
 12  5  1  0
  1  2  1  0
  1  3  1  0
  1  4  1  0
  6  7  1  0
  8  9  1  0
 10 11  1  0
 12 13  1  0
 14 18  1  0
 18 19  2  0
 18 20  1  0
 20 21  1  0
 21 24  1  0
 24 27  1  0
 27 30  1  0
 30 20  1  0
 14 15  1  0
 14 16  1  0
 14 17  1  0
 21 22  1  0
 21 23  1  0
 24 25  1  0
 24 26  1  0
 27 28  1  0
 27 29  1  0
 30 31  1  0
 30 32  1  0
M  CHG  1   8   1
M  END
>  <PDB_ID>  (83) 
pdb5ksr

>  <RESIDUE_NAME>  (83) 
HIP   PRO

>  <FRAG_NAME>  (83) 
MIMM   N1PA

>  <FRAG_ATOM_NUM>  (83) 
fragi: 13  fragj: 19

>  <atom.prop.CHAIN_ID>  (83) 
A A A A A A A A A A A A A Z Z Z Z Z Z Z Z Z Z Z Z Z Z Z Z Z Z Z

>  <atom.prop.IS_HEAVY_ATOM>  (83) 
1 0 0 0 1 1 0 1 0 1 0 1 0 1 0 0 0 1 1 1 1 0 0 1 0 0 1 0 0 1 0 0

>  <DIFUSE_FUNC_ATOM>  (83) 
n/a

>  <FINAL_SINGLE_POINT_ENERGY>  (83) 
0

>  <NONCOV_INTER_ENERGY_QM>  (83) 
0

>  <FF_Energy>  (83) 
-19.86

>  <QM_Energy>  (83) 
-26.44

>  <Index>  (83) 
1040

$$$$
MIMM-pdb5ksr-A-HIP-73:N1PA-pdb5ksr-B-PRO-191
     RDKit          3D

 32 32  0  0  0  0  0  0  0  0999 V2000
   -0.6829    2.7671    0.0514 C   0  0  0  0  0  0  0  0  0  0  0  0
   -1.6073    2.8009   -0.3333 H   0  0  0  0  0  0  0  0  0  0  0  0
   -0.0709    3.3237   -0.5140 H   0  0  0  0  0  0  0  0  0  0  0  0
   -0.7128    3.2015    1.0507 H   0  0  0  0  0  0  0  0  0  0  0  0
   -0.1982    1.3282    0.0098 C   0  0  0  0  0  0  0  0  0  0  0  0
    1.0599    0.7994   -0.0000 C   0  0  0  0  0  0  0  0  0  0  0  0
    1.9130    1.3122    0.0031 H   0  0  0  0  0  0  0  0  0  0  0  0
    0.9336   -0.5747   -0.0132 N   0  0  0  0  0  4  0  0  0  0  0  0
    1.6863   -1.2281   -0.0296 H   0  0  0  0  0  0  0  0  0  0  0  0
   -0.3566   -0.8799   -0.0025 C   0  0  0  0  0  0  0  0  0  0  0  0
   -0.7355   -1.7999    0.0034 H   0  0  0  0  0  0  0  0  0  0  0  0
   -1.0599    0.2470   -0.0000 N   0  0  0  0  0  0  0  0  0  0  0  0
   -2.0570    0.3058   -0.0053 H   0  0  0  0  0  0  0  0  0  0  0  0
    3.0905   -4.3663   -0.4189 C   0  0  0  0  0  0  0  0  0  0  0  0
    3.8083   -5.0336   -0.7290 H   0  0  0  0  0  0  0  0  0  0  0  0
    2.3622   -4.9068    0.1858 H   0  0  0  0  0  0  0  0  0  0  0  0
    2.6138   -4.0366   -1.3421 H   0  0  0  0  0  0  0  0  0  0  0  0
    3.8025   -3.1859    0.2592 C   0  0  0  0  0  0  0  0  0  0  0  0
    3.2128   -2.1167    0.4492 O   0  0  0  0  0  0  0  0  0  0  0  0
    5.1009   -3.3511    0.5573 N   0  0  0  0  0  0  0  0  0  0  0  0
    5.8758   -2.3807    1.3576 C   0  0  0  0  0  0  0  0  0  0  0  0
    5.3214   -2.0745    2.1697 H   0  0  0  0  0  0  0  0  0  0  0  0
    6.2664   -1.5123    0.8271 H   0  0  0  0  0  0  0  0  0  0  0  0
    7.0410   -3.2196    1.8733 C   0  0  0  0  0  0  0  0  0  0  0  0
    7.8629   -2.6535    1.9890 H   0  0  0  0  0  0  0  0  0  0  0  0
    6.8130   -3.6429    2.7538 H   0  0  0  0  0  0  0  0  0  0  0  0
    7.2518   -4.2564    0.8215 C   0  0  0  0  0  0  0  0  0  0  0  0
    7.9291   -3.9389    0.1378 H   0  0  0  0  0  0  0  0  0  0  0  0
    7.6120   -5.1104    1.2307 H   0  0  0  0  0  0  0  0  0  0  0  0
    5.9124   -4.5161    0.1535 C   0  0  0  0  0  0  0  0  0  0  0  0
    6.0068   -4.5532   -0.8390 H   0  0  0  0  0  0  0  0  0  0  0  0
    5.5029   -5.3641    0.4857 H   0  0  0  0  0  0  0  0  0  0  0  0
  1  5  1  0
  5  6  2  0
  6  8  1  0
  8 10  2  0
 10 12  1  0
 12  5  1  0
  1  2  1  0
  1  3  1  0
  1  4  1  0
  6  7  1  0
  8  9  1  0
 10 11  1  0
 12 13  1  0
 14 18  1  0
 18 19  2  0
 18 20  1  0
 20 21  1  0
 21 24  1  0
 24 27  1  0
 27 30  1  0
 30 20  1  0
 14 15  1  0
 14 16  1  0
 14 17  1  0
 21 22  1  0
 21 23  1  0
 24 25  1  0
 24 26  1  0
 27 28  1  0
 27 29  1  0
 30 31  1  0
 30 32  1  0
M  CHG  1   8   1
M  END
>  <PDB_ID>  (84) 
pdb5ksr

>  <RESIDUE_NAME>  (84) 
HIP   PRO

>  <FRAG_NAME>  (84) 
MIMM   N1PA

>  <FRAG_ATOM_NUM>  (84) 
fragi: 13  fragj: 19

>  <atom.prop.CHAIN_ID>  (84) 
A A A A A A A A A A A A A Z Z Z Z Z Z Z Z Z Z Z Z Z Z Z Z Z Z Z

>  <atom.prop.IS_HEAVY_ATOM>  (84) 
1 0 0 0 1 1 0 1 0 1 0 1 0 1 0 0 0 1 1 1 1 0 0 1 0 0 1 0 0 1 0 0

>  <DIFUSE_FUNC_ATOM>  (84) 
n/a

>  <FINAL_SINGLE_POINT_ENERGY>  (84) 
0

>  <NONCOV_INTER_ENERGY_QM>  (84) 
0

>  <FF_Energy>  (84) 
-19.3

>  <QM_Energy>  (84) 
-26.36

>  <Index>  (84) 
1041

$$$$
MIMM-pdb5ksr-D-HIP-73:N1PA-pdb5ksr-C-PRO-191
     RDKit          3D

 32 32  0  0  0  0  0  0  0  0999 V2000
   -0.6808    2.7680   -0.0020 C   0  0  0  0  0  0  0  0  0  0  0  0
   -1.6264    2.7839   -0.3279 H   0  0  0  0  0  0  0  0  0  0  0  0
   -0.1052    3.2939   -0.6284 H   0  0  0  0  0  0  0  0  0  0  0  0
   -0.6479    3.2486    0.9757 H   0  0  0  0  0  0  0  0  0  0  0  0
   -0.1971    1.3277    0.0009 C   0  0  0  0  0  0  0  0  0  0  0  0
    1.0567    0.8013   -0.0000 C   0  0  0  0  0  0  0  0  0  0  0  0
    1.9118    1.3127   -0.0101 H   0  0  0  0  0  0  0  0  0  0  0  0
    0.9314   -0.5736    0.0169 N   0  0  0  0  0  4  0  0  0  0  0  0
    1.6861   -1.2247    0.0399 H   0  0  0  0  0  0  0  0  0  0  0  0
   -0.3562   -0.8803   -0.0034 C   0  0  0  0  0  0  0  0  0  0  0  0
   -0.7344   -1.8007   -0.0178 H   0  0  0  0  0  0  0  0  0  0  0  0
   -1.0567    0.2452    0.0000 N   0  0  0  0  0  0  0  0  0  0  0  0
   -2.0547    0.3050    0.0012 H   0  0  0  0  0  0  0  0  0  0  0  0
    2.6817   -4.7621   -0.4226 C   0  0  0  0  0  0  0  0  0  0  0  0
    3.3428   -5.4778   -0.7182 H   0  0  0  0  0  0  0  0  0  0  0  0
    1.9401   -5.2226    0.2301 H   0  0  0  0  0  0  0  0  0  0  0  0
    2.2044   -4.4171   -1.3398 H   0  0  0  0  0  0  0  0  0  0  0  0
    3.4765   -3.6217    0.2396 C   0  0  0  0  0  0  0  0  0  0  0  0
    2.9192   -2.5508    0.5189 O   0  0  0  0  0  0  0  0  0  0  0  0
    4.7897   -3.8441    0.4629 N   0  0  0  0  0  0  0  0  0  0  0  0
    5.6549   -2.9241    1.2189 C   0  0  0  0  0  0  0  0  0  0  0  0
    5.1450   -2.5319    2.0142 H   0  0  0  0  0  0  0  0  0  0  0  0
    6.1014   -2.1230    0.6299 H   0  0  0  0  0  0  0  0  0  0  0  0
    6.7448   -3.8495    1.7828 C   0  0  0  0  0  0  0  0  0  0  0  0
    7.6401   -3.4044    1.7664 H   0  0  0  0  0  0  0  0  0  0  0  0
    6.5302   -4.1342    2.7158 H   0  0  0  0  0  0  0  0  0  0  0  0
    6.7515   -5.0723    0.8500 C   0  0  0  0  0  0  0  0  0  0  0  0
    7.6215   -5.0974    0.3351 H   0  0  0  0  0  0  0  0  0  0  0  0
    6.6991   -5.9172    1.4040 H   0  0  0  0  0  0  0  0  0  0  0  0
    5.5645   -4.9680   -0.0933 C   0  0  0  0  0  0  0  0  0  0  0  0
    5.8619   -4.7657   -1.0240 H   0  0  0  0  0  0  0  0  0  0  0  0
    5.0248   -5.8081   -0.0863 H   0  0  0  0  0  0  0  0  0  0  0  0
  1  5  1  0
  5  6  2  0
  6  8  1  0
  8 10  2  0
 10 12  1  0
 12  5  1  0
  1  2  1  0
  1  3  1  0
  1  4  1  0
  6  7  1  0
  8  9  1  0
 10 11  1  0
 12 13  1  0
 14 18  1  0
 18 19  2  0
 18 20  1  0
 20 21  1  0
 21 24  1  0
 24 27  1  0
 27 30  1  0
 30 20  1  0
 14 15  1  0
 14 16  1  0
 14 17  1  0
 21 22  1  0
 21 23  1  0
 24 25  1  0
 24 26  1  0
 27 28  1  0
 27 29  1  0
 30 31  1  0
 30 32  1  0
M  CHG  1   8   1
M  END
>  <PDB_ID>  (85) 
pdb5ksr

>  <RESIDUE_NAME>  (85) 
HIP   PRO

>  <FRAG_NAME>  (85) 
MIMM   N1PA

>  <FRAG_ATOM_NUM>  (85) 
fragi: 13  fragj: 19

>  <atom.prop.CHAIN_ID>  (85) 
A A A A A A A A A A A A A Z Z Z Z Z Z Z Z Z Z Z Z Z Z Z Z Z Z Z

>  <atom.prop.IS_HEAVY_ATOM>  (85) 
1 0 0 0 1 1 0 1 0 1 0 1 0 1 0 0 0 1 1 1 1 0 0 1 0 0 1 0 0 1 0 0

>  <DIFUSE_FUNC_ATOM>  (85) 
n/a

>  <FINAL_SINGLE_POINT_ENERGY>  (85) 
0

>  <NONCOV_INTER_ENERGY_QM>  (85) 
0

>  <FF_Energy>  (85) 
-19.68

>  <QM_Energy>  (85) 
-25.43

>  <Index>  (85) 
1042

$$$$
MIMM-pdb5m8l-A-HIP-75:N1PA-pdb5m8l-A-PRO-80
     RDKit          3D

 32 32  0  0  0  0  0  0  0  0999 V2000
   -0.6709    2.7376   -0.0174 C   0  0  0  0  0  0  0  0  0  0  0  0
   -1.3770    2.8254   -0.7303 H   0  0  0  0  0  0  0  0  0  0  0  0
    0.1050    3.3287   -0.2666 H   0  0  0  0  0  0  0  0  0  0  0  0
   -1.0824    3.0758    0.9337 H   0  0  0  0  0  0  0  0  0  0  0  0
   -0.1933    1.3185   -0.0032 C   0  0  0  0  0  0  0  0  0  0  0  0
    1.0552    0.7993   -0.0000 C   0  0  0  0  0  0  0  0  0  0  0  0
    1.9100    1.3118    0.0007 H   0  0  0  0  0  0  0  0  0  0  0  0
    0.9264   -0.5658    0.0034 N   0  0  0  0  0  4  0  0  0  0  0  0
    1.6836   -1.2226    0.0065 H   0  0  0  0  0  0  0  0  0  0  0  0
   -0.3562   -0.8748    0.0005 C   0  0  0  0  0  0  0  0  0  0  0  0
   -0.7330   -1.7973   -0.0002 H   0  0  0  0  0  0  0  0  0  0  0  0
   -1.0552    0.2454    0.0000 N   0  0  0  0  0  0  0  0  0  0  0  0
   -2.0534    0.3069    0.0011 H   0  0  0  0  0  0  0  0  0  0  0  0
   -2.8467   -3.2213   -2.8527 C   0  0  0  0  0  0  0  0  0  0  0  0
   -3.1158   -3.8107   -3.6191 H   0  0  0  0  0  0  0  0  0  0  0  0
   -3.7387   -2.7360   -2.4565 H   0  0  0  0  0  0  0  0  0  0  0  0
   -2.1343   -2.4704   -3.1943 H   0  0  0  0  0  0  0  0  0  0  0  0
   -2.2152   -4.1000   -1.7806 C   0  0  0  0  0  0  0  0  0  0  0  0
   -1.5969   -3.5748   -0.8473 O   0  0  0  0  0  0  0  0  0  0  0  0
   -2.3256   -5.4216   -1.8672 N   0  0  0  0  0  0  0  0  0  0  0  0
   -1.7572   -6.2937   -0.8391 C   0  0  0  0  0  0  0  0  0  0  0  0
   -1.7875   -5.8280    0.0742 H   0  0  0  0  0  0  0  0  0  0  0  0
   -0.7499   -6.6533   -1.0496 H   0  0  0  0  0  0  0  0  0  0  0  0
   -2.7445   -7.4578   -0.8266 C   0  0  0  0  0  0  0  0  0  0  0  0
   -2.2962   -8.2932   -0.4960 H   0  0  0  0  0  0  0  0  0  0  0  0
   -3.5231   -7.2498   -0.2302 H   0  0  0  0  0  0  0  0  0  0  0  0
   -3.1533   -7.5817   -2.2296 C   0  0  0  0  0  0  0  0  0  0  0  0
   -2.5130   -8.1726   -2.7487 H   0  0  0  0  0  0  0  0  0  0  0  0
   -4.0759   -7.9950   -2.3076 H   0  0  0  0  0  0  0  0  0  0  0  0
   -3.1586   -6.1843   -2.8124 C   0  0  0  0  0  0  0  0  0  0  0  0
   -2.7567   -6.1727   -3.7268 H   0  0  0  0  0  0  0  0  0  0  0  0
   -4.0853   -5.8104   -2.8488 H   0  0  0  0  0  0  0  0  0  0  0  0
  1  5  1  0
  5  6  2  0
  6  8  1  0
  8 10  2  0
 10 12  1  0
 12  5  1  0
  1  2  1  0
  1  3  1  0
  1  4  1  0
  6  7  1  0
  8  9  1  0
 10 11  1  0
 12 13  1  0
 14 18  1  0
 18 19  2  0
 18 20  1  0
 20 21  1  0
 21 24  1  0
 24 27  1  0
 27 30  1  0
 30 20  1  0
 14 15  1  0
 14 16  1  0
 14 17  1  0
 21 22  1  0
 21 23  1  0
 24 25  1  0
 24 26  1  0
 27 28  1  0
 27 29  1  0
 30 31  1  0
 30 32  1  0
M  CHG  1   8   1
M  END
>  <PDB_ID>  (86) 
pdb5m8l

>  <RESIDUE_NAME>  (86) 
HIP   PRO

>  <FRAG_NAME>  (86) 
MIMM   N1PA

>  <FRAG_ATOM_NUM>  (86) 
fragi: 13  fragj: 19

>  <atom.prop.CHAIN_ID>  (86) 
A A A A A A A A A A A A A Z Z Z Z Z Z Z Z Z Z Z Z Z Z Z Z Z Z Z

>  <atom.prop.IS_HEAVY_ATOM>  (86) 
1 0 0 0 1 1 0 1 0 1 0 1 0 1 0 0 0 1 1 1 1 0 0 1 0 0 1 0 0 1 0 0

>  <DIFUSE_FUNC_ATOM>  (86) 
n/a

>  <FINAL_SINGLE_POINT_ENERGY>  (86) 
0

>  <NONCOV_INTER_ENERGY_QM>  (86) 
0

>  <FF_Energy>  (86) 
-13.64

>  <QM_Energy>  (86) 
-18.87

>  <Index>  (86) 
1061

$$$$
MIMM-pdb5onn-A-HIP-55:N1PA-pdb5onn-A-PRO-108
     RDKit          3D

 32 32  0  0  0  0  0  0  0  0999 V2000
   -0.6459    2.7266   -0.0074 C   0  0  0  0  0  0  0  0  0  0  0  0
   -0.0837    3.2218    0.6092 H   0  0  0  0  0  0  0  0  0  0  0  0
   -1.5639    2.7392    0.3035 H   0  0  0  0  0  0  0  0  0  0  0  0
   -0.5991    3.2062   -0.9851 H   0  0  0  0  0  0  0  0  0  0  0  0
   -0.1829    1.3073   -0.0049 C   0  0  0  0  0  0  0  0  0  0  0  0
    1.0599    0.7775    0.0000 C   0  0  0  0  0  0  0  0  0  0  0  0
    1.8617    1.2489   -0.0004 H   0  0  0  0  0  0  0  0  0  0  0  0
    0.9148   -0.5888    0.0040 N   0  0  0  0  0  4  0  0  0  0  0  0
    1.5583   -1.1593    0.0043 H   0  0  0  0  0  0  0  0  0  0  0  0
   -0.3705   -0.8835   -0.0036 C   0  0  0  0  0  0  0  0  0  0  0  0
   -0.7319   -1.7412    0.0009 H   0  0  0  0  0  0  0  0  0  0  0  0
   -1.0599    0.2452   -0.0000 N   0  0  0  0  0  0  0  0  0  0  0  0
   -1.9175    0.3069   -0.0047 H   0  0  0  0  0  0  0  0  0  0  0  0
   -6.1035    2.3378   -0.4842 C   0  0  0  0  0  0  0  0  0  0  0  0
   -7.0252    2.1977   -0.2168 H   0  0  0  0  0  0  0  0  0  0  0  0
   -5.5436    2.5066    0.4356 H   0  0  0  0  0  0  0  0  0  0  0  0
   -6.0966    3.2481   -1.0838 H   0  0  0  0  0  0  0  0  0  0  0  0
   -5.8186    1.2469   -1.5805 C   0  0  0  0  0  0  0  0  0  0  0  0
   -6.7683    1.0060   -2.3604 O   0  0  0  0  0  0  0  0  0  0  0  0
   -4.5415    0.7836   -1.8309 N   0  0  0  0  0  0  0  0  0  0  0  0
   -4.9399   -0.5927   -1.6129 C   0  0  0  0  0  0  0  0  0  0  0  0
   -5.8817   -0.7223   -1.8031 H   0  0  0  0  0  0  0  0  0  0  0  0
   -4.7251   -0.8306   -0.5711 H   0  0  0  0  0  0  0  0  0  0  0  0
   -4.0812   -1.4004   -2.5921 C   0  0  0  0  0  0  0  0  0  0  0  0
   -3.7676   -2.2093   -2.1590 H   0  0  0  0  0  0  0  0  0  0  0  0
   -4.6037   -1.6156   -3.3807 H   0  0  0  0  0  0  0  0  0  0  0  0
   -2.9652   -0.5386   -2.9365 C   0  0  0  0  0  0  0  0  0  0  0  0
   -2.2356   -0.6951   -2.3168 H   0  0  0  0  0  0  0  0  0  0  0  0
   -2.6818   -0.7285   -3.8453 H   0  0  0  0  0  0  0  0  0  0  0  0
   -3.4432    0.8620   -2.8276 C   0  0  0  0  0  0  0  0  0  0  0  0
   -2.7329    1.4358   -2.5017 H   0  0  0  0  0  0  0  0  0  0  0  0
   -3.7849    1.1691   -3.6818 H   0  0  0  0  0  0  0  0  0  0  0  0
  1  5  1  0
  5  6  2  0
  6  8  1  0
  8 10  2  0
 10 12  1  0
 12  5  1  0
  1  2  1  0
  1  3  1  0
  1  4  1  0
  6  7  1  0
  8  9  1  0
 10 11  1  0
 12 13  1  0
 14 18  1  0
 18 19  2  0
 18 20  1  0
 20 21  1  0
 21 24  1  0
 24 27  1  0
 27 30  1  0
 30 20  1  0
 14 15  1  0
 14 16  1  0
 14 17  1  0
 21 22  1  0
 21 23  1  0
 24 25  1  0
 24 26  1  0
 27 28  1  0
 27 29  1  0
 30 31  1  0
 30 32  1  0
M  CHG  1   8   1
M  END
>  <PDB_ID>  (87) 
pdb5onn

>  <RESIDUE_NAME>  (87) 
HIP   PRO

>  <FRAG_NAME>  (87) 
MIMM   N1PA

>  <FRAG_ATOM_NUM>  (87) 
fragi: 13  fragj: 19

>  <atom.prop.CHAIN_ID>  (87) 
A A A A A A A A A A A A A Z Z Z Z Z Z Z Z Z Z Z Z Z Z Z Z Z Z Z

>  <atom.prop.IS_HEAVY_ATOM>  (87) 
1 0 0 0 1 1 0 1 0 1 0 1 0 1 0 0 0 1 1 1 1 0 0 1 0 0 1 0 0 1 0 0

>  <DIFUSE_FUNC_ATOM>  (87) 
n/a

>  <FINAL_SINGLE_POINT_ENERGY>  (87) 
0

>  <NONCOV_INTER_ENERGY_QM>  (87) 
0

>  <FF_Energy>  (87) 
2.76

>  <QM_Energy>  (87) 
-2.45

>  <Index>  (87) 
1088

$$$$
MIMM-pdb5x7g-A-HIP-525:N1PA-pdb5x7g-A-PRO-522
     RDKit          3D

 32 32  0  0  0  0  0  0  0  0999 V2000
   -0.6699    2.7519   -0.0315 C   0  0  0  0  0  0  0  0  0  0  0  0
   -0.0489    3.3034    0.5347 H   0  0  0  0  0  0  0  0  0  0  0  0
   -1.5888    2.7867    0.3743 H   0  0  0  0  0  0  0  0  0  0  0  0
   -0.7151    3.1934   -1.0270 H   0  0  0  0  0  0  0  0  0  0  0  0
   -0.1936    1.3233   -0.0079 C   0  0  0  0  0  0  0  0  0  0  0  0
    1.0569    0.8004   -0.0000 C   0  0  0  0  0  0  0  0  0  0  0  0
    1.9121    1.3114    0.0065 H   0  0  0  0  0  0  0  0  0  0  0  0
    0.9278   -0.5689   -0.0019 N   0  0  0  0  0  4  0  0  0  0  0  0
    1.6836   -1.2250   -0.0073 H   0  0  0  0  0  0  0  0  0  0  0  0
   -0.3580   -0.8783    0.0031 C   0  0  0  0  0  0  0  0  0  0  0  0
   -0.7342   -1.7995    0.0099 H   0  0  0  0  0  0  0  0  0  0  0  0
   -1.0569    0.2447   -0.0000 N   0  0  0  0  0  0  0  0  0  0  0  0
   -2.0549    0.3074    0.0024 H   0  0  0  0  0  0  0  0  0  0  0  0
    2.1201   -4.3217    1.2523 C   0  0  0  0  0  0  0  0  0  0  0  0
    2.6193   -4.9898    1.7978 H   0  0  0  0  0  0  0  0  0  0  0  0
    1.4468   -3.7737    1.9115 H   0  0  0  0  0  0  0  0  0  0  0  0
    1.5735   -4.7978    0.4384 H   0  0  0  0  0  0  0  0  0  0  0  0
    3.1117   -3.3368    0.6589 C   0  0  0  0  0  0  0  0  0  0  0  0
    2.8708   -2.1323    0.6990 O   0  0  0  0  0  0  0  0  0  0  0  0
    4.2220   -3.8244    0.0797 N   0  0  0  0  0  0  0  0  0  0  0  0
    5.1995   -2.8753   -0.4608 C   0  0  0  0  0  0  0  0  0  0  0  0
    5.5561   -2.2704    0.2768 H   0  0  0  0  0  0  0  0  0  0  0  0
    4.8182   -2.2760   -1.2876 H   0  0  0  0  0  0  0  0  0  0  0  0
    6.3500   -3.7704   -0.9478 C   0  0  0  0  0  0  0  0  0  0  0  0
    6.3619   -3.8052   -1.9579 H   0  0  0  0  0  0  0  0  0  0  0  0
    7.2374   -3.3974   -0.6421 H   0  0  0  0  0  0  0  0  0  0  0  0
    6.1060   -5.1174   -0.3686 C   0  0  0  0  0  0  0  0  0  0  0  0
    6.4283   -5.8384   -1.0003 H   0  0  0  0  0  0  0  0  0  0  0  0
    6.6098   -5.2239    0.5017 H   0  0  0  0  0  0  0  0  0  0  0  0
    4.6324   -5.2195   -0.1490 C   0  0  0  0  0  0  0  0  0  0  0  0
    4.1629   -5.5945   -0.9502 H   0  0  0  0  0  0  0  0  0  0  0  0
    4.4137   -5.7830    0.6513 H   0  0  0  0  0  0  0  0  0  0  0  0
  1  5  1  0
  5  6  2  0
  6  8  1  0
  8 10  2  0
 10 12  1  0
 12  5  1  0
  1  2  1  0
  1  3  1  0
  1  4  1  0
  6  7  1  0
  8  9  1  0
 10 11  1  0
 12 13  1  0
 14 18  1  0
 18 19  2  0
 18 20  1  0
 20 21  1  0
 21 24  1  0
 24 27  1  0
 27 30  1  0
 30 20  1  0
 14 15  1  0
 14 16  1  0
 14 17  1  0
 21 22  1  0
 21 23  1  0
 24 25  1  0
 24 26  1  0
 27 28  1  0
 27 29  1  0
 30 31  1  0
 30 32  1  0
M  CHG  1   8   1
M  END
>  <PDB_ID>  (88) 
pdb5x7g

>  <RESIDUE_NAME>  (88) 
HIP   PRO

>  <FRAG_NAME>  (88) 
MIMM   N1PA

>  <FRAG_ATOM_NUM>  (88) 
fragi: 13  fragj: 19

>  <atom.prop.CHAIN_ID>  (88) 
A A A A A A A A A A A A A Z Z Z Z Z Z Z Z Z Z Z Z Z Z Z Z Z Z Z

>  <atom.prop.IS_HEAVY_ATOM>  (88) 
1 0 0 0 1 1 0 1 0 1 0 1 0 1 0 0 0 1 1 1 1 0 0 1 0 0 1 0 0 1 0 0

>  <DIFUSE_FUNC_ATOM>  (88) 
n/a

>  <FINAL_SINGLE_POINT_ENERGY>  (88) 
0

>  <NONCOV_INTER_ENERGY_QM>  (88) 
0

>  <FF_Energy>  (88) 
-16.49

>  <QM_Energy>  (88) 
-23.91

>  <Index>  (88) 
1144

$$$$
