MIMM-pdb5jqf-A-HIP-15:N1PA-pdb5jqf-A-PRO-7
     RDKit          3D

 32 32  0  0  0  0  0  0  0  0999 V2000
   -0.6121    2.7379    0.0039 C   0  0  0  0  0  0  0  0  0  0  0  0
   -0.0939    3.1920    0.6902 H   0  0  0  0  0  0  0  0  0  0  0  0
   -1.5450    2.7396    0.2350 H   0  0  0  0  0  0  0  0  0  0  0  0
   -0.4808    3.2379   -0.9557 H   0  0  0  0  0  0  0  0  0  0  0  0
   -0.1796    1.3092    0.0016 C   0  0  0  0  0  0  0  0  0  0  0  0
    1.0621    0.7670   -0.0000 C   0  0  0  0  0  0  0  0  0  0  0  0
    1.8772    1.2152    0.0040 H   0  0  0  0  0  0  0  0  0  0  0  0
    0.9133   -0.5875   -0.0054 N   0  0  0  0  0  4  0  0  0  0  0  0
    1.5538   -1.1643   -0.0187 H   0  0  0  0  0  0  0  0  0  0  0  0
   -0.3725   -0.8838   -0.0159 C   0  0  0  0  0  0  0  0  0  0  0  0
   -0.7337   -1.7390    0.0037 H   0  0  0  0  0  0  0  0  0  0  0  0
   -1.0621    0.2503    0.0000 N   0  0  0  0  0  0  0  0  0  0  0  0
   -1.9166    0.3120   -0.0125 H   0  0  0  0  0  0  0  0  0  0  0  0
   -3.6435    2.4720    2.3755 C   0  0  0  0  0  0  0  0  0  0  0  0
   -4.3317    2.4324    3.0345 H   0  0  0  0  0  0  0  0  0  0  0  0
   -3.4646    3.4055    2.2689 H   0  0  0  0  0  0  0  0  0  0  0  0
   -2.7757    1.9092    2.7195 H   0  0  0  0  0  0  0  0  0  0  0  0
   -4.1577    1.8851    1.0862 C   0  0  0  0  0  0  0  0  0  0  0  0
   -3.6471    0.8876    0.5657 O   0  0  0  0  0  0  0  0  0  0  0  0
   -5.1740    2.5015    0.4974 N   0  0  0  0  0  0  0  0  0  0  0  0
   -5.6384    2.0831   -0.8150 C   0  0  0  0  0  0  0  0  0  0  0  0
   -6.0538    1.2007   -0.7896 H   0  0  0  0  0  0  0  0  0  0  0  0
   -4.8067    2.1215   -1.5186 H   0  0  0  0  0  0  0  0  0  0  0  0
   -6.7296    3.1336   -1.1350 C   0  0  0  0  0  0  0  0  0  0  0  0
   -6.3574    3.8838   -1.6299 H   0  0  0  0  0  0  0  0  0  0  0  0
   -7.4568    2.7461   -1.6365 H   0  0  0  0  0  0  0  0  0  0  0  0
   -7.1927    3.5877    0.2263 C   0  0  0  0  0  0  0  0  0  0  0  0
   -7.6309    4.4654    0.1886 H   0  0  0  0  0  0  0  0  0  0  0  0
   -7.8176    2.9496    0.6130 H   0  0  0  0  0  0  0  0  0  0  0  0
   -5.9255    3.6650    1.0095 C   0  0  0  0  0  0  0  0  0  0  0  0
   -5.4736    4.4958    0.8456 H   0  0  0  0  0  0  0  0  0  0  0  0
   -6.1312    3.5531    1.9654 H   0  0  0  0  0  0  0  0  0  0  0  0
  1  5  1  0
  5  6  2  0
  6  8  1  0
  8 10  2  0
 10 12  1  0
 12  5  1  0
  1  2  1  0
  1  3  1  0
  1  4  1  0
  6  7  1  0
  8  9  1  0
 10 11  1  0
 12 13  1  0
 14 18  1  0
 18 19  2  0
 18 20  1  0
 20 21  1  0
 21 24  1  0
 24 27  1  0
 27 30  1  0
 30 20  1  0
 14 15  1  0
 14 16  1  0
 14 17  1  0
 21 22  1  0
 21 23  1  0
 24 25  1  0
 24 26  1  0
 27 28  1  0
 27 29  1  0
 30 31  1  0
 30 32  1  0
M  CHG  1   8   1
M  END
>  <PDB_ID>  (1) 
pdb5jqf

>  <RESIDUE_NAME>  (1) 
HIP   PRO

>  <FRAG_NAME>  (1) 
MIMM   N1PA

>  <FRAG_ATOM_NUM>  (1) 
fragi: 13  fragj: 19

>  <atom.prop.CHAIN_ID>  (1) 
A A A A A A A A A A A A A Z Z Z Z Z Z Z Z Z Z Z Z Z Z Z Z Z Z Z

>  <atom.prop.IS_HEAVY_ATOM>  (1) 
1 0 0 0 1 1 0 1 0 1 0 1 0 1 0 0 0 1 1 1 1 0 0 1 0 0 1 0 0 1 0 0

>  <DIFUSE_FUNC_ATOM>  (1) 
n/a

>  <FINAL_SINGLE_POINT_ENERGY>  (1) 
0

>  <NONCOV_INTER_ENERGY_QM>  (1) 
0

>  <FF_Energy>  (1) 
-14.26

>  <QM_Energy>  (1) 
-23.21

>  <Index>  (1) 
0

$$$$
MIMM-pdb5jqf-B-HIP-15:N1PA-pdb5jqf-B-PRO-7
     RDKit          3D

 32 32  0  0  0  0  0  0  0  0999 V2000
   -0.6713    2.7231   -0.0892 C   0  0  0  0  0  0  0  0  0  0  0  0
   -0.1563    3.2862    0.5007 H   0  0  0  0  0  0  0  0  0  0  0  0
   -1.6132    2.7596    0.1777 H   0  0  0  0  0  0  0  0  0  0  0  0
   -0.6021    3.1123   -1.1051 H   0  0  0  0  0  0  0  0  0  0  0  0
   -0.2003    1.3095   -0.0050 C   0  0  0  0  0  0  0  0  0  0  0  0
    1.0515    0.7870   -0.0000 C   0  0  0  0  0  0  0  0  0  0  0  0
    1.8322    1.2718   -0.0248 H   0  0  0  0  0  0  0  0  0  0  0  0
    0.9181   -0.5849   -0.0050 N   0  0  0  0  0  4  0  0  0  0  0  0
    1.5673   -1.1431    0.0350 H   0  0  0  0  0  0  0  0  0  0  0  0
   -0.3597   -0.8864    0.0015 C   0  0  0  0  0  0  0  0  0  0  0  0
   -0.7179   -1.7465    0.0100 H   0  0  0  0  0  0  0  0  0  0  0  0
   -1.0515    0.2349    0.0000 N   0  0  0  0  0  0  0  0  0  0  0  0
   -1.9136    0.2881   -0.0110 H   0  0  0  0  0  0  0  0  0  0  0  0
   -3.8915    2.5552    2.2386 C   0  0  0  0  0  0  0  0  0  0  0  0
   -4.6170    2.4223    2.8708 H   0  0  0  0  0  0  0  0  0  0  0  0
   -3.7808    3.4915    2.0148 H   0  0  0  0  0  0  0  0  0  0  0  0
   -2.9718    2.1631    2.6728 H   0  0  0  0  0  0  0  0  0  0  0  0
   -4.2884    1.8271    0.9836 C   0  0  0  0  0  0  0  0  0  0  0  0
   -3.6152    0.8775    0.5353 O   0  0  0  0  0  0  0  0  0  0  0  0
   -5.3577    2.2574    0.3520 N   0  0  0  0  0  0  0  0  0  0  0  0
   -5.7600    1.6661   -0.9249 C   0  0  0  0  0  0  0  0  0  0  0  0
   -6.0355    0.7307   -0.8028 H   0  0  0  0  0  0  0  0  0  0  0  0
   -4.9354    1.7223   -1.6354 H   0  0  0  0  0  0  0  0  0  0  0  0
   -6.9376    2.5575   -1.3441 C   0  0  0  0  0  0  0  0  0  0  0  0
   -6.6193    3.2831   -1.9015 H   0  0  0  0  0  0  0  0  0  0  0  0
   -7.5944    1.9995   -1.7971 H   0  0  0  0  0  0  0  0  0  0  0  0
   -7.5026    3.0730   -0.0103 C   0  0  0  0  0  0  0  0  0  0  0  0
   -7.9980    3.8729   -0.1852 H   0  0  0  0  0  0  0  0  0  0  0  0
   -8.0178    2.3716    0.4102 H   0  0  0  0  0  0  0  0  0  0  0  0
   -6.2629    3.3523    0.7758 C   0  0  0  0  0  0  0  0  0  0  0  0
   -5.8641    4.2039    0.5020 H   0  0  0  0  0  0  0  0  0  0  0  0
   -6.4483    3.3186    1.7124 H   0  0  0  0  0  0  0  0  0  0  0  0
  1  5  1  0
  5  6  2  0
  6  8  1  0
  8 10  2  0
 10 12  1  0
 12  5  1  0
  1  2  1  0
  1  3  1  0
  1  4  1  0
  6  7  1  0
  8  9  1  0
 10 11  1  0
 12 13  1  0
 14 18  1  0
 18 19  2  0
 18 20  1  0
 20 21  1  0
 21 24  1  0
 24 27  1  0
 27 30  1  0
 30 20  1  0
 14 15  1  0
 14 16  1  0
 14 17  1  0
 21 22  1  0
 21 23  1  0
 24 25  1  0
 24 26  1  0
 27 28  1  0
 27 29  1  0
 30 31  1  0
 30 32  1  0
M  CHG  1   8   1
M  END
>  <PDB_ID>  (2) 
pdb5jqf

>  <RESIDUE_NAME>  (2) 
HIP   PRO

>  <FRAG_NAME>  (2) 
MIMM   N1PA

>  <FRAG_ATOM_NUM>  (2) 
fragi: 13  fragj: 19

>  <atom.prop.CHAIN_ID>  (2) 
A A A A A A A A A A A A A Z Z Z Z Z Z Z Z Z Z Z Z Z Z Z Z Z Z Z

>  <atom.prop.IS_HEAVY_ATOM>  (2) 
1 0 0 0 1 1 0 1 0 1 0 1 0 1 0 0 0 1 1 1 1 0 0 1 0 0 1 0 0 1 0 0

>  <DIFUSE_FUNC_ATOM>  (2) 
n/a

>  <FINAL_SINGLE_POINT_ENERGY>  (2) 
0

>  <NONCOV_INTER_ENERGY_QM>  (2) 
0

>  <FF_Energy>  (2) 
-14.99

>  <QM_Energy>  (2) 
-24.48

>  <Index>  (2) 
2

$$$$
MIMM-pdb1a12-A-HIP-270:N1PA-pdb1a12-A-PRO-275
     RDKit          3D

 32 32  0  0  0  0  0  0  0  0999 V2000
   -0.6785    2.7354   -0.0521 C   0  0  0  0  0  0  0  0  0  0  0  0
    0.0442    3.3296    0.3243 H   0  0  0  0  0  0  0  0  0  0  0  0
   -1.4893    2.8143    0.5417 H   0  0  0  0  0  0  0  0  0  0  0  0
   -0.9392    3.0868   -1.0504 H   0  0  0  0  0  0  0  0  0  0  0  0
   -0.1959    1.3188   -0.0031 C   0  0  0  0  0  0  0  0  0  0  0  0
    1.0549    0.8032   -0.0000 C   0  0  0  0  0  0  0  0  0  0  0  0
    1.9082    1.3160    0.0023 H   0  0  0  0  0  0  0  0  0  0  0  0
    0.9282   -0.5662    0.0014 N   0  0  0  0  0  4  0  0  0  0  0  0
    1.6846   -1.2207    0.0013 H   0  0  0  0  0  0  0  0  0  0  0  0
   -0.3575   -0.8754    0.0002 C   0  0  0  0  0  0  0  0  0  0  0  0
   -0.7323   -1.7989    0.0017 H   0  0  0  0  0  0  0  0  0  0  0  0
   -1.0549    0.2431    0.0000 N   0  0  0  0  0  0  0  0  0  0  0  0
   -2.0546    0.3046    0.0005 H   0  0  0  0  0  0  0  0  0  0  0  0
   -6.1972    1.0647   -0.6191 C   0  0  0  0  0  0  0  0  0  0  0  0
   -7.0794    0.8915   -0.1883 H   0  0  0  0  0  0  0  0  0  0  0  0
   -5.9300    2.1115   -0.4741 H   0  0  0  0  0  0  0  0  0  0  0  0
   -6.2559    0.8088   -1.6770 H   0  0  0  0  0  0  0  0  0  0  0  0
   -5.1463    0.1931    0.0820 C   0  0  0  0  0  0  0  0  0  0  0  0
   -4.0020    0.6039    0.2280 O   0  0  0  0  0  0  0  0  0  0  0  0
   -5.5491   -0.9947    0.4941 N   0  0  0  0  0  0  0  0  0  0  0  0
   -4.6407   -1.9450    1.1069 C   0  0  0  0  0  0  0  0  0  0  0  0
   -4.2186   -1.5604    1.9405 H   0  0  0  0  0  0  0  0  0  0  0  0
   -3.8710   -2.2693    0.4067 H   0  0  0  0  0  0  0  0  0  0  0  0
   -5.5683   -3.0846    1.5242 C   0  0  0  0  0  0  0  0  0  0  0  0
   -5.6927   -3.7293    0.7728 H   0  0  0  0  0  0  0  0  0  0  0  0
   -5.2043   -3.5611    2.3216 H   0  0  0  0  0  0  0  0  0  0  0  0
   -6.8302   -2.3788    1.8451 C   0  0  0  0  0  0  0  0  0  0  0  0
   -7.5960   -3.0054    1.8678 H   0  0  0  0  0  0  0  0  0  0  0  0
   -6.7530   -1.8763    2.6939 H   0  0  0  0  0  0  0  0  0  0  0  0
   -6.9441   -1.4356    0.6720 C   0  0  0  0  0  0  0  0  0  0  0  0
   -7.2706   -1.9053   -0.1415 H   0  0  0  0  0  0  0  0  0  0  0  0
   -7.5337   -0.6612    0.8836 H   0  0  0  0  0  0  0  0  0  0  0  0
  1  5  1  0
  5  6  2  0
  6  8  1  0
  8 10  2  0
 10 12  1  0
 12  5  1  0
  1  2  1  0
  1  3  1  0
  1  4  1  0
  6  7  1  0
  8  9  1  0
 10 11  1  0
 12 13  1  0
 14 18  1  0
 18 19  2  0
 18 20  1  0
 20 21  1  0
 21 24  1  0
 24 27  1  0
 27 30  1  0
 30 20  1  0
 14 15  1  0
 14 16  1  0
 14 17  1  0
 21 22  1  0
 21 23  1  0
 24 25  1  0
 24 26  1  0
 27 28  1  0
 27 29  1  0
 30 31  1  0
 30 32  1  0
M  CHG  1   8   1
M  END
>  <PDB_ID>  (3) 
pdb1a12

>  <RESIDUE_NAME>  (3) 
HIP   PRO

>  <FRAG_NAME>  (3) 
MIMM   N1PA

>  <FRAG_ATOM_NUM>  (3) 
fragi: 13  fragj: 19

>  <atom.prop.CHAIN_ID>  (3) 
A A A A A A A A A A A A A Z Z Z Z Z Z Z Z Z Z Z Z Z Z Z Z Z Z Z

>  <atom.prop.IS_HEAVY_ATOM>  (3) 
1 0 0 0 1 1 0 1 0 1 0 1 0 1 0 0 0 1 1 1 1 0 0 1 0 0 1 0 0 1 0 0

>  <DIFUSE_FUNC_ATOM>  (3) 
n/a

>  <FINAL_SINGLE_POINT_ENERGY>  (3) 
0

>  <NONCOV_INTER_ENERGY_QM>  (3) 
0

>  <FF_Energy>  (3) 
-16.23

>  <QM_Energy>  (3) 
-24.23

>  <Index>  (3) 
12

$$$$
MIMM-pdb1a12-B-HIP-270:N1PA-pdb1a12-B-PRO-275
     RDKit          3D

 32 32  0  0  0  0  0  0  0  0999 V2000
   -0.6756    2.7339   -0.0410 C   0  0  0  0  0  0  0  0  0  0  0  0
    0.0391    3.3218    0.3593 H   0  0  0  0  0  0  0  0  0  0  0  0
   -1.4997    2.8046    0.5355 H   0  0  0  0  0  0  0  0  0  0  0  0
   -0.9134    3.0994   -1.0400 H   0  0  0  0  0  0  0  0  0  0  0  0
   -0.1968    1.3197   -0.0058 C   0  0  0  0  0  0  0  0  0  0  0  0
    1.0557    0.8017   -0.0000 C   0  0  0  0  0  0  0  0  0  0  0  0
    1.9085    1.3158    0.0030 H   0  0  0  0  0  0  0  0  0  0  0  0
    0.9286   -0.5659    0.0010 N   0  0  0  0  0  4  0  0  0  0  0  0
    1.6854   -1.2214    0.0005 H   0  0  0  0  0  0  0  0  0  0  0  0
   -0.3573   -0.8777    0.0026 C   0  0  0  0  0  0  0  0  0  0  0  0
   -0.7318   -1.7997    0.0049 H   0  0  0  0  0  0  0  0  0  0  0  0
   -1.0557    0.2442    0.0000 N   0  0  0  0  0  0  0  0  0  0  0  0
   -2.0550    0.3035    0.0023 H   0  0  0  0  0  0  0  0  0  0  0  0
   -6.1337    1.2761   -0.3499 C   0  0  0  0  0  0  0  0  0  0  0  0
   -7.0103    1.1185    0.1207 H   0  0  0  0  0  0  0  0  0  0  0  0
   -5.8567    2.3237   -0.2326 H   0  0  0  0  0  0  0  0  0  0  0  0
   -6.2429    1.0189   -1.4035 H   0  0  0  0  0  0  0  0  0  0  0  0
   -5.0859    0.3658    0.2776 C   0  0  0  0  0  0  0  0  0  0  0  0
   -3.9024    0.6895    0.2818 O   0  0  0  0  0  0  0  0  0  0  0  0
   -5.4914   -0.8143    0.7375 N   0  0  0  0  0  0  0  0  0  0  0  0
   -4.5805   -1.7837    1.2994 C   0  0  0  0  0  0  0  0  0  0  0  0
   -4.0862   -1.3928    2.1032 H   0  0  0  0  0  0  0  0  0  0  0  0
   -3.8707   -2.1824    0.5747 H   0  0  0  0  0  0  0  0  0  0  0  0
   -5.5190   -2.9032    1.7636 C   0  0  0  0  0  0  0  0  0  0  0  0
   -5.5913   -3.6159    1.0640 H   0  0  0  0  0  0  0  0  0  0  0  0
   -5.1908   -3.3081    2.6166 H   0  0  0  0  0  0  0  0  0  0  0  0
   -6.8312   -2.2149    1.9653 C   0  0  0  0  0  0  0  0  0  0  0  0
   -7.5743   -2.8707    1.9493 H   0  0  0  0  0  0  0  0  0  0  0  0
   -6.8295   -1.7048    2.8154 H   0  0  0  0  0  0  0  0  0  0  0  0
   -6.8778   -1.3074    0.7832 C   0  0  0  0  0  0  0  0  0  0  0  0
   -7.1008   -1.7979   -0.0524 H   0  0  0  0  0  0  0  0  0  0  0  0
   -7.5121   -0.5519    0.9184 H   0  0  0  0  0  0  0  0  0  0  0  0
  1  5  1  0
  5  6  2  0
  6  8  1  0
  8 10  2  0
 10 12  1  0
 12  5  1  0
  1  2  1  0
  1  3  1  0
  1  4  1  0
  6  7  1  0
  8  9  1  0
 10 11  1  0
 12 13  1  0
 14 18  1  0
 18 19  2  0
 18 20  1  0
 20 21  1  0
 21 24  1  0
 24 27  1  0
 27 30  1  0
 30 20  1  0
 14 15  1  0
 14 16  1  0
 14 17  1  0
 21 22  1  0
 21 23  1  0
 24 25  1  0
 24 26  1  0
 27 28  1  0
 27 29  1  0
 30 31  1  0
 30 32  1  0
M  CHG  1   8   1
M  END
>  <PDB_ID>  (4) 
pdb1a12

>  <RESIDUE_NAME>  (4) 
HIP   PRO

>  <FRAG_NAME>  (4) 
MIMM   N1PA

>  <FRAG_ATOM_NUM>  (4) 
fragi: 13  fragj: 19

>  <atom.prop.CHAIN_ID>  (4) 
A A A A A A A A A A A A A Z Z Z Z Z Z Z Z Z Z Z Z Z Z Z Z Z Z Z

>  <atom.prop.IS_HEAVY_ATOM>  (4) 
1 0 0 0 1 1 0 1 0 1 0 1 0 1 0 0 0 1 1 1 1 0 0 1 0 0 1 0 0 1 0 0

>  <DIFUSE_FUNC_ATOM>  (4) 
n/a

>  <FINAL_SINGLE_POINT_ENERGY>  (4) 
0

>  <NONCOV_INTER_ENERGY_QM>  (4) 
0

>  <FF_Energy>  (4) 
-17.09

>  <QM_Energy>  (4) 
-25.42

>  <Index>  (4) 
13

$$$$
MIMM-pdb1a12-C-HIP-270:N1PA-pdb1a12-C-PRO-275
     RDKit          3D

 32 32  0  0  0  0  0  0  0  0999 V2000
   -0.6720    2.7407   -0.0643 C   0  0  0  0  0  0  0  0  0  0  0  0
    0.0350    3.3294    0.3474 H   0  0  0  0  0  0  0  0  0  0  0  0
   -1.5078    2.8173    0.4945 H   0  0  0  0  0  0  0  0  0  0  0  0
   -0.8891    3.1032   -1.0690 H   0  0  0  0  0  0  0  0  0  0  0  0
   -0.1954    1.3205   -0.0061 C   0  0  0  0  0  0  0  0  0  0  0  0
    1.0550    0.8016    0.0000 C   0  0  0  0  0  0  0  0  0  0  0  0
    1.9095    1.3136    0.0042 H   0  0  0  0  0  0  0  0  0  0  0  0
    0.9274   -0.5674    0.0022 N   0  0  0  0  0  4  0  0  0  0  0  0
    1.6847   -1.2220    0.0026 H   0  0  0  0  0  0  0  0  0  0  0  0
   -0.3556   -0.8755    0.0018 C   0  0  0  0  0  0  0  0  0  0  0  0
   -0.7320   -1.7986    0.0039 H   0  0  0  0  0  0  0  0  0  0  0  0
   -1.0550    0.2438   -0.0000 N   0  0  0  0  0  0  0  0  0  0  0  0
   -2.0541    0.3046    0.0013 H   0  0  0  0  0  0  0  0  0  0  0  0
   -6.1266    1.4055   -0.4086 C   0  0  0  0  0  0  0  0  0  0  0  0
   -6.9612    1.2437    0.1223 H   0  0  0  0  0  0  0  0  0  0  0  0
   -5.8038    2.4350   -0.2533 H   0  0  0  0  0  0  0  0  0  0  0  0
   -6.2568    1.1866   -1.4684 H   0  0  0  0  0  0  0  0  0  0  0  0
   -5.0486    0.4399    0.0933 C   0  0  0  0  0  0  0  0  0  0  0  0
   -3.8577    0.7364    0.0072 O   0  0  0  0  0  0  0  0  0  0  0  0
   -5.4512   -0.7530    0.5279 N   0  0  0  0  0  0  0  0  0  0  0  0
   -4.5470   -1.7497    1.0481 C   0  0  0  0  0  0  0  0  0  0  0  0
   -4.0966   -1.4033    1.9163 H   0  0  0  0  0  0  0  0  0  0  0  0
   -3.7920   -2.1292    0.3596 H   0  0  0  0  0  0  0  0  0  0  0  0
   -5.4961   -2.8664    1.4954 C   0  0  0  0  0  0  0  0  0  0  0  0
   -5.6425   -3.5227    0.7571 H   0  0  0  0  0  0  0  0  0  0  0  0
   -5.1352   -3.3364    2.2984 H   0  0  0  0  0  0  0  0  0  0  0  0
   -6.7623   -2.1380    1.8232 C   0  0  0  0  0  0  0  0  0  0  0  0
   -7.5283   -2.7612    1.8394 H   0  0  0  0  0  0  0  0  0  0  0  0
   -6.6726   -1.6538    2.6796 H   0  0  0  0  0  0  0  0  0  0  0  0
   -6.8513   -1.1918    0.6671 C   0  0  0  0  0  0  0  0  0  0  0  0
   -7.1572   -1.6492   -0.1619 H   0  0  0  0  0  0  0  0  0  0  0  0
   -7.4422   -0.4151    0.8687 H   0  0  0  0  0  0  0  0  0  0  0  0
  1  5  1  0
  5  6  2  0
  6  8  1  0
  8 10  2  0
 10 12  1  0
 12  5  1  0
  1  2  1  0
  1  3  1  0
  1  4  1  0
  6  7  1  0
  8  9  1  0
 10 11  1  0
 12 13  1  0
 14 18  1  0
 18 19  2  0
 18 20  1  0
 20 21  1  0
 21 24  1  0
 24 27  1  0
 27 30  1  0
 30 20  1  0
 14 15  1  0
 14 16  1  0
 14 17  1  0
 21 22  1  0
 21 23  1  0
 24 25  1  0
 24 26  1  0
 27 28  1  0
 27 29  1  0
 30 31  1  0
 30 32  1  0
M  CHG  1   8   1
M  END
>  <PDB_ID>  (5) 
pdb1a12

>  <RESIDUE_NAME>  (5) 
HIP   PRO

>  <FRAG_NAME>  (5) 
MIMM   N1PA

>  <FRAG_ATOM_NUM>  (5) 
fragi: 13  fragj: 19

>  <atom.prop.CHAIN_ID>  (5) 
A A A A A A A A A A A A A Z Z Z Z Z Z Z Z Z Z Z Z Z Z Z Z Z Z Z

>  <atom.prop.IS_HEAVY_ATOM>  (5) 
1 0 0 0 1 1 0 1 0 1 0 1 0 1 0 0 0 1 1 1 1 0 0 1 0 0 1 0 0 1 0 0

>  <DIFUSE_FUNC_ATOM>  (5) 
n/a

>  <FINAL_SINGLE_POINT_ENERGY>  (5) 
0

>  <NONCOV_INTER_ENERGY_QM>  (5) 
0

>  <FF_Energy>  (5) 
-17.57

>  <QM_Energy>  (5) 
-26.29

>  <Index>  (5) 
14

$$$$
MIMM-pdb2b2n-B-HIP-38:N1PA-pdb2b2n-B-PRO-41
     RDKit          3D

 32 32  0  0  0  0  0  0  0  0999 V2000
   -0.6829    2.7333    0.1142 C   0  0  0  0  0  0  0  0  0  0  0  0
   -1.3912    2.8786   -0.5804 H   0  0  0  0  0  0  0  0  0  0  0  0
    0.0872    3.3484   -0.0710 H   0  0  0  0  0  0  0  0  0  0  0  0
   -1.0959    2.9729    1.0940 H   0  0  0  0  0  0  0  0  0  0  0  0
   -0.1972    1.3205    0.0083 C   0  0  0  0  0  0  0  0  0  0  0  0
    1.0538    0.8037    0.0000 C   0  0  0  0  0  0  0  0  0  0  0  0
    1.9072    1.3161   -0.0029 H   0  0  0  0  0  0  0  0  0  0  0  0
    0.9273   -0.5660   -0.0025 N   0  0  0  0  0  4  0  0  0  0  0  0
    1.6868   -1.2194   -0.0044 H   0  0  0  0  0  0  0  0  0  0  0  0
   -0.3553   -0.8780   -0.0038 C   0  0  0  0  0  0  0  0  0  0  0  0
   -0.7301   -1.7998   -0.0058 H   0  0  0  0  0  0  0  0  0  0  0  0
   -1.0538    0.2417   -0.0000 N   0  0  0  0  0  0  0  0  0  0  0  0
   -2.0538    0.3010   -0.0034 H   0  0  0  0  0  0  0  0  0  0  0  0
    3.5674    0.0988    2.7460 C   0  0  0  0  0  0  0  0  0  0  0  0
    4.2588   -0.0977    3.4337 H   0  0  0  0  0  0  0  0  0  0  0  0
    3.1982   -0.7487    2.3771 H   0  0  0  0  0  0  0  0  0  0  0  0
    2.7657    0.6922    3.1855 H   0  0  0  0  0  0  0  0  0  0  0  0
    4.1815    0.9149    1.6267 C   0  0  0  0  0  0  0  0  0  0  0  0
    3.5980    1.9140    1.2116 O   0  0  0  0  0  0  0  0  0  0  0  0
    5.3470    0.5120    1.1035 N   0  0  0  0  0  0  0  0  0  0  0  0
    6.0048    1.2528    0.0201 C   0  0  0  0  0  0  0  0  0  0  0  0
    6.2587    2.1835    0.3323 H   0  0  0  0  0  0  0  0  0  0  0  0
    5.3974    1.3008   -0.8837 H   0  0  0  0  0  0  0  0  0  0  0  0
    7.2760    0.4446   -0.2485 C   0  0  0  0  0  0  0  0  0  0  0  0
    7.1787   -0.1120   -1.0754 H   0  0  0  0  0  0  0  0  0  0  0  0
    8.0694    1.0463   -0.3461 H   0  0  0  0  0  0  0  0  0  0  0  0
    7.4306   -0.4419    0.9687 C   0  0  0  0  0  0  0  0  0  0  0  0
    7.9492   -1.2623    0.7274 H   0  0  0  0  0  0  0  0  0  0  0  0
    7.9107    0.0555    1.6910 H   0  0  0  0  0  0  0  0  0  0  0  0
    6.0342   -0.7671    1.3580 C   0  0  0  0  0  0  0  0  0  0  0  0
    5.6458   -1.4877    0.7909 H   0  0  0  0  0  0  0  0  0  0  0  0
    5.9612   -1.0144    2.3209 H   0  0  0  0  0  0  0  0  0  0  0  0
  1  5  1  0
  5  6  2  0
  6  8  1  0
  8 10  2  0
 10 12  1  0
 12  5  1  0
  1  2  1  0
  1  3  1  0
  1  4  1  0
  6  7  1  0
  8  9  1  0
 10 11  1  0
 12 13  1  0
 14 18  1  0
 18 19  2  0
 18 20  1  0
 20 21  1  0
 21 24  1  0
 24 27  1  0
 27 30  1  0
 30 20  1  0
 14 15  1  0
 14 16  1  0
 14 17  1  0
 21 22  1  0
 21 23  1  0
 24 25  1  0
 24 26  1  0
 27 28  1  0
 27 29  1  0
 30 31  1  0
 30 32  1  0
M  CHG  1   8   1
M  END
>  <PDB_ID>  (6) 
pdb2b2n

>  <RESIDUE_NAME>  (6) 
HIP   PRO

>  <FRAG_NAME>  (6) 
MIMM   N1PA

>  <FRAG_ATOM_NUM>  (6) 
fragi: 13  fragj: 19

>  <atom.prop.CHAIN_ID>  (6) 
A A A A A A A A A A A A A Z Z Z Z Z Z Z Z Z Z Z Z Z Z Z Z Z Z Z

>  <atom.prop.IS_HEAVY_ATOM>  (6) 
1 0 0 0 1 1 0 1 0 1 0 1 0 1 0 0 0 1 1 1 1 0 0 1 0 0 1 0 0 1 0 0

>  <DIFUSE_FUNC_ATOM>  (6) 
n/a

>  <FINAL_SINGLE_POINT_ENERGY>  (6) 
0

>  <NONCOV_INTER_ENERGY_QM>  (6) 
0

>  <FF_Energy>  (6) 
-3.95

>  <QM_Energy>  (6) 
-10.78

>  <Index>  (6) 
17

$$$$
MIMM-pdb2bjr-B-HIP-352:N1PA-pdb2bjr-B-PRO-349
     RDKit          3D

 32 32  0  0  0  0  0  0  0  0999 V2000
   -0.6483    2.7458   -0.0133 C   0  0  0  0  0  0  0  0  0  0  0  0
   -0.3225    3.2048    0.8146 H   0  0  0  0  0  0  0  0  0  0  0  0
   -1.6490    2.7551   -0.0253 H   0  0  0  0  0  0  0  0  0  0  0  0
   -0.2781    3.2829   -0.8866 H   0  0  0  0  0  0  0  0  0  0  0  0
   -0.1888    1.3208    0.0232 C   0  0  0  0  0  0  0  0  0  0  0  0
    1.0596    0.7927    0.0000 C   0  0  0  0  0  0  0  0  0  0  0  0
    1.9161    1.3047   -0.0128 H   0  0  0  0  0  0  0  0  0  0  0  0
    0.9286   -0.5716   -0.0017 N   0  0  0  0  0  4  0  0  0  0  0  0
    1.6808   -1.2311    0.0015 H   0  0  0  0  0  0  0  0  0  0  0  0
   -0.3583   -0.8721   -0.0102 C   0  0  0  0  0  0  0  0  0  0  0  0
   -0.7397   -1.7940   -0.0215 H   0  0  0  0  0  0  0  0  0  0  0  0
   -1.0596    0.2521    0.0000 N   0  0  0  0  0  0  0  0  0  0  0  0
   -2.0537    0.3162   -0.0085 H   0  0  0  0  0  0  0  0  0  0  0  0
    5.5482    0.2008    1.8395 C   0  0  0  0  0  0  0  0  0  0  0  0
    5.2181   -0.7335    1.6009 H   0  0  0  0  0  0  0  0  0  0  0  0
    5.9372    0.1362    2.7792 H   0  0  0  0  0  0  0  0  0  0  0  0
    6.3380    0.4888    1.1457 H   0  0  0  0  0  0  0  0  0  0  0  0
    4.3722    1.1564    1.8516 C   0  0  0  0  0  0  0  0  0  0  0  0
    3.8966    1.5322    0.7868 O   0  0  0  0  0  0  0  0  0  0  0  0
    3.8904    1.5433    3.0372 N   0  0  0  0  0  0  0  0  0  0  0  0
    2.6854    2.3974    3.1541 C   0  0  0  0  0  0  0  0  0  0  0  0
    1.8538    1.8703    2.8791 H   0  0  0  0  0  0  0  0  0  0  0  0
    2.7287    3.3392    2.6070 H   0  0  0  0  0  0  0  0  0  0  0  0
    2.5620    2.6721    4.6764 C   0  0  0  0  0  0  0  0  0  0  0  0
    2.4578    3.6625    4.8414 H   0  0  0  0  0  0  0  0  0  0  0  0
    1.7453    2.2087    5.0464 H   0  0  0  0  0  0  0  0  0  0  0  0
    3.8123    2.1510    5.3152 C   0  0  0  0  0  0  0  0  0  0  0  0
    4.4467    2.9152    5.5211 H   0  0  0  0  0  0  0  0  0  0  0  0
    3.5937    1.6966    6.1952 H   0  0  0  0  0  0  0  0  0  0  0  0
    4.4461    1.1767    4.3566 C   0  0  0  0  0  0  0  0  0  0  0  0
    5.4453    1.2650    4.3510 H   0  0  0  0  0  0  0  0  0  0  0  0
    4.2067    0.2282    4.5852 H   0  0  0  0  0  0  0  0  0  0  0  0
  1  5  1  0
  5  6  2  0
  6  8  1  0
  8 10  2  0
 10 12  1  0
 12  5  1  0
  1  2  1  0
  1  3  1  0
  1  4  1  0
  6  7  1  0
  8  9  1  0
 10 11  1  0
 12 13  1  0
 14 18  1  0
 18 19  2  0
 18 20  1  0
 20 21  1  0
 21 24  1  0
 24 27  1  0
 27 30  1  0
 30 20  1  0
 14 15  1  0
 14 16  1  0
 14 17  1  0
 21 22  1  0
 21 23  1  0
 24 25  1  0
 24 26  1  0
 27 28  1  0
 27 29  1  0
 30 31  1  0
 30 32  1  0
M  CHG  1   8   1
M  END
>  <PDB_ID>  (7) 
pdb2bjr

>  <RESIDUE_NAME>  (7) 
HIP   PRO

>  <FRAG_NAME>  (7) 
MIMM   N1PA

>  <FRAG_ATOM_NUM>  (7) 
fragi: 13  fragj: 19

>  <atom.prop.CHAIN_ID>  (7) 
A A A A A A A A A A A A A Z Z Z Z Z Z Z Z Z Z Z Z Z Z Z Z Z Z Z

>  <atom.prop.IS_HEAVY_ATOM>  (7) 
1 0 0 0 1 1 0 1 0 1 0 1 0 1 0 0 0 1 1 1 1 0 0 1 0 0 1 0 0 1 0 0

>  <DIFUSE_FUNC_ATOM>  (7) 
n/a

>  <FINAL_SINGLE_POINT_ENERGY>  (7) 
0

>  <NONCOV_INTER_ENERGY_QM>  (7) 
0

>  <FF_Energy>  (7) 
-6.34

>  <QM_Energy>  (7) 
-13.35

>  <Index>  (7) 
24

$$$$
MIMM-pdb1b5o-A-HIP-215:N1PA-pdb1b5o-A-PRO-173
     RDKit          3D

 32 32  0  0  0  0  0  0  0  0999 V2000
   -0.6758    2.7338    0.0745 C   0  0  0  0  0  0  0  0  0  0  0  0
   -1.3033    2.8932   -0.6925 H   0  0  0  0  0  0  0  0  0  0  0  0
    0.1159    3.3432   -0.0223 H   0  0  0  0  0  0  0  0  0  0  0  0
   -1.1899    2.9684    1.0065 H   0  0  0  0  0  0  0  0  0  0  0  0
   -0.1944    1.3200    0.0057 C   0  0  0  0  0  0  0  0  0  0  0  0
    1.0556    0.8019    0.0000 C   0  0  0  0  0  0  0  0  0  0  0  0
    1.9098    1.3136   -0.0007 H   0  0  0  0  0  0  0  0  0  0  0  0
    0.9271   -0.5661   -0.0030 N   0  0  0  0  0  4  0  0  0  0  0  0
    1.6851   -1.2214   -0.0067 H   0  0  0  0  0  0  0  0  0  0  0  0
   -0.3569   -0.8778   -0.0026 C   0  0  0  0  0  0  0  0  0  0  0  0
   -0.7326   -1.7995   -0.0027 H   0  0  0  0  0  0  0  0  0  0  0  0
   -1.0556    0.2437   -0.0000 N   0  0  0  0  0  0  0  0  0  0  0  0
   -2.0544    0.3051   -0.0023 H   0  0  0  0  0  0  0  0  0  0  0  0
   -4.3299   -4.2689    0.0227 C   0  0  0  0  0  0  0  0  0  0  0  0
   -5.2112   -4.3838   -0.4561 H   0  0  0  0  0  0  0  0  0  0  0  0
   -3.8449   -5.2435    0.0790 H   0  0  0  0  0  0  0  0  0  0  0  0
   -4.5330   -3.8876    1.0235 H   0  0  0  0  0  0  0  0  0  0  0  0
   -3.4960   -3.2638   -0.7737 C   0  0  0  0  0  0  0  0  0  0  0  0
   -2.3128   -3.0921   -0.5038 O   0  0  0  0  0  0  0  0  0  0  0  0
   -4.0894   -2.6320   -1.8107 N   0  0  0  0  0  0  0  0  0  0  0  0
   -5.4678   -2.7849   -2.2983 C   0  0  0  0  0  0  0  0  0  0  0  0
   -6.1265   -2.4648   -1.6058 H   0  0  0  0  0  0  0  0  0  0  0  0
   -5.6775   -3.8158   -2.5835 H   0  0  0  0  0  0  0  0  0  0  0  0
   -5.5203   -1.8224   -3.4861 C   0  0  0  0  0  0  0  0  0  0  0  0
   -5.1697   -2.2584   -4.3081 H   0  0  0  0  0  0  0  0  0  0  0  0
   -6.4474   -1.4963   -3.6356 H   0  0  0  0  0  0  0  0  0  0  0  0
   -4.6253   -0.7196   -3.0377 C   0  0  0  0  0  0  0  0  0  0  0  0
   -4.3449   -0.1546   -3.8005 H   0  0  0  0  0  0  0  0  0  0  0  0
   -5.0558   -0.1758   -2.3315 H   0  0  0  0  0  0  0  0  0  0  0  0
   -3.4397   -1.4865   -2.4751 C   0  0  0  0  0  0  0  0  0  0  0  0
   -2.8348   -1.7957   -3.2016 H   0  0  0  0  0  0  0  0  0  0  0  0
   -2.9352   -0.9350   -1.8170 H   0  0  0  0  0  0  0  0  0  0  0  0
  1  5  1  0
  5  6  2  0
  6  8  1  0
  8 10  2  0
 10 12  1  0
 12  5  1  0
  1  2  1  0
  1  3  1  0
  1  4  1  0
  6  7  1  0
  8  9  1  0
 10 11  1  0
 12 13  1  0
 14 18  1  0
 18 19  2  0
 18 20  1  0
 20 21  1  0
 21 24  1  0
 24 27  1  0
 27 30  1  0
 30 20  1  0
 14 15  1  0
 14 16  1  0
 14 17  1  0
 21 22  1  0
 21 23  1  0
 24 25  1  0
 24 26  1  0
 27 28  1  0
 27 29  1  0
 30 31  1  0
 30 32  1  0
M  CHG  1   8   1
M  END
>  <PDB_ID>  (8) 
pdb1b5o

>  <RESIDUE_NAME>  (8) 
HIP   PRO

>  <FRAG_NAME>  (8) 
MIMM   N1PA

>  <FRAG_ATOM_NUM>  (8) 
fragi: 13  fragj: 19

>  <atom.prop.CHAIN_ID>  (8) 
A A A A A A A A A A A A A Z Z Z Z Z Z Z Z Z Z Z Z Z Z Z Z Z Z Z

>  <atom.prop.IS_HEAVY_ATOM>  (8) 
1 0 0 0 1 1 0 1 0 1 0 1 0 1 0 0 0 1 1 1 1 0 0 1 0 0 1 0 0 1 0 0

>  <DIFUSE_FUNC_ATOM>  (8) 
n/a

>  <FINAL_SINGLE_POINT_ENERGY>  (8) 
0

>  <NONCOV_INTER_ENERGY_QM>  (8) 
0

>  <FF_Energy>  (8) 
-6.48

>  <QM_Energy>  (8) 
-16.7

>  <Index>  (8) 
30

$$$$
MIMM-pdb1b5o-B-HIP-215:N1PA-pdb1b5o-B-PRO-173
     RDKit          3D

 32 32  0  0  0  0  0  0  0  0999 V2000
   -0.6746    2.7364    0.0755 C   0  0  0  0  0  0  0  0  0  0  0  0
   -1.3736    2.8677   -0.6337 H   0  0  0  0  0  0  0  0  0  0  0  0
    0.1016    3.3421   -0.1199 H   0  0  0  0  0  0  0  0  0  0  0  0
   -1.0964    3.0000    1.0454 H   0  0  0  0  0  0  0  0  0  0  0  0
   -0.1943    1.3198    0.0069 C   0  0  0  0  0  0  0  0  0  0  0  0
    1.0558    0.8022   -0.0000 C   0  0  0  0  0  0  0  0  0  0  0  0
    1.9095    1.3143   -0.0023 H   0  0  0  0  0  0  0  0  0  0  0  0
    0.9259   -0.5649   -0.0022 N   0  0  0  0  0  4  0  0  0  0  0  0
    1.6842   -1.2215   -0.0036 H   0  0  0  0  0  0  0  0  0  0  0  0
   -0.3573   -0.8771   -0.0032 C   0  0  0  0  0  0  0  0  0  0  0  0
   -0.7316   -1.7996   -0.0047 H   0  0  0  0  0  0  0  0  0  0  0  0
   -1.0558    0.2425    0.0000 N   0  0  0  0  0  0  0  0  0  0  0  0
   -2.0539    0.3046   -0.0036 H   0  0  0  0  0  0  0  0  0  0  0  0
   -5.1469   -3.7235    0.4552 C   0  0  0  0  0  0  0  0  0  0  0  0
   -6.0472   -3.7206    0.0077 H   0  0  0  0  0  0  0  0  0  0  0  0
   -4.7937   -4.7538    0.4987 H   0  0  0  0  0  0  0  0  0  0  0  0
   -5.2258   -3.3143    1.4623 H   0  0  0  0  0  0  0  0  0  0  0  0
   -4.2045   -2.8436   -0.3877 C   0  0  0  0  0  0  0  0  0  0  0  0
   -3.0035   -2.8054   -0.1214 O   0  0  0  0  0  0  0  0  0  0  0  0
   -4.7255   -2.1499   -1.4275 N   0  0  0  0  0  0  0  0  0  0  0  0
   -6.1216   -2.1061   -1.8973 C   0  0  0  0  0  0  0  0  0  0  0  0
   -6.7212   -1.7157   -1.1930 H   0  0  0  0  0  0  0  0  0  0  0  0
   -6.4623   -3.0998   -2.1882 H   0  0  0  0  0  0  0  0  0  0  0  0
   -6.0536   -1.1432   -3.0873 C   0  0  0  0  0  0  0  0  0  0  0  0
   -5.8341   -1.6355   -3.9259 H   0  0  0  0  0  0  0  0  0  0  0  0
   -6.9155   -0.6558   -3.1958 H   0  0  0  0  0  0  0  0  0  0  0  0
   -4.9531   -0.2146   -2.7029 C   0  0  0  0  0  0  0  0  0  0  0  0
   -4.6099    0.2773   -3.4912 H   0  0  0  0  0  0  0  0  0  0  0  0
   -5.2466    0.4096   -1.9931 H   0  0  0  0  0  0  0  0  0  0  0  0
   -3.9051   -1.1761   -2.1726 C   0  0  0  0  0  0  0  0  0  0  0  0
   -3.4168   -1.6215   -2.9149 H   0  0  0  0  0  0  0  0  0  0  0  0
   -3.2675   -0.7140   -1.5655 H   0  0  0  0  0  0  0  0  0  0  0  0
  1  5  1  0
  5  6  2  0
  6  8  1  0
  8 10  2  0
 10 12  1  0
 12  5  1  0
  1  2  1  0
  1  3  1  0
  1  4  1  0
  6  7  1  0
  8  9  1  0
 10 11  1  0
 12 13  1  0
 14 18  1  0
 18 19  2  0
 18 20  1  0
 20 21  1  0
 21 24  1  0
 24 27  1  0
 27 30  1  0
 30 20  1  0
 14 15  1  0
 14 16  1  0
 14 17  1  0
 21 22  1  0
 21 23  1  0
 24 25  1  0
 24 26  1  0
 27 28  1  0
 27 29  1  0
 30 31  1  0
 30 32  1  0
M  CHG  1   8   1
M  END
>  <PDB_ID>  (9) 
pdb1b5o

>  <RESIDUE_NAME>  (9) 
HIP   PRO

>  <FRAG_NAME>  (9) 
MIMM   N1PA

>  <FRAG_ATOM_NUM>  (9) 
fragi: 13  fragj: 19

>  <atom.prop.CHAIN_ID>  (9) 
A A A A A A A A A A A A A Z Z Z Z Z Z Z Z Z Z Z Z Z Z Z Z Z Z Z

>  <atom.prop.IS_HEAVY_ATOM>  (9) 
1 0 0 0 1 1 0 1 0 1 0 1 0 1 0 0 0 1 1 1 1 0 0 1 0 0 1 0 0 1 0 0

>  <DIFUSE_FUNC_ATOM>  (9) 
n/a

>  <FINAL_SINGLE_POINT_ENERGY>  (9) 
0

>  <NONCOV_INTER_ENERGY_QM>  (9) 
0

>  <FF_Energy>  (9) 
-10.12

>  <QM_Energy>  (9) 
-15.5

>  <Index>  (9) 
31

$$$$
MIMM-pdb2c4n-A-HIP-148:N1PA-pdb2c4n-A-PRO-154
     RDKit          3D

 32 32  0  0  0  0  0  0  0  0999 V2000
   -0.6686    2.7384   -0.0179 C   0  0  0  0  0  0  0  0  0  0  0  0
   -1.3715    2.8304   -0.7333 H   0  0  0  0  0  0  0  0  0  0  0  0
    0.1094    3.3306   -0.2603 H   0  0  0  0  0  0  0  0  0  0  0  0
   -1.0851    3.0751    0.9315 H   0  0  0  0  0  0  0  0  0  0  0  0
   -0.1937    1.3208   -0.0038 C   0  0  0  0  0  0  0  0  0  0  0  0
    1.0560    0.8000   -0.0000 C   0  0  0  0  0  0  0  0  0  0  0  0
    1.9116    1.3122    0.0021 H   0  0  0  0  0  0  0  0  0  0  0  0
    0.9273   -0.5672    0.0019 N   0  0  0  0  0  4  0  0  0  0  0  0
    1.6841   -1.2236    0.0032 H   0  0  0  0  0  0  0  0  0  0  0  0
   -0.3572   -0.8764    0.0009 C   0  0  0  0  0  0  0  0  0  0  0  0
   -0.7336   -1.7985    0.0019 H   0  0  0  0  0  0  0  0  0  0  0  0
   -1.0560    0.2449    0.0000 N   0  0  0  0  0  0  0  0  0  0  0  0
   -2.0537    0.3069    0.0012 H   0  0  0  0  0  0  0  0  0  0  0  0
   -3.4212    5.1185   -2.9088 C   0  0  0  0  0  0  0  0  0  0  0  0
   -3.2922    5.8115   -3.6181 H   0  0  0  0  0  0  0  0  0  0  0  0
   -3.0061    4.1760   -3.2656 H   0  0  0  0  0  0  0  0  0  0  0  0
   -4.4687    4.9833   -2.6394 H   0  0  0  0  0  0  0  0  0  0  0  0
   -2.6562    5.5577   -1.6691 C   0  0  0  0  0  0  0  0  0  0  0  0
   -2.5701    4.8110   -0.6946 O   0  0  0  0  0  0  0  0  0  0  0  0
   -2.1033    6.7783   -1.6835 N   0  0  0  0  0  0  0  0  0  0  0  0
   -1.3636    7.2412   -0.5084 C   0  0  0  0  0  0  0  0  0  0  0  0
   -0.5375    6.6847   -0.3631 H   0  0  0  0  0  0  0  0  0  0  0  0
   -1.9971    7.2313    0.3785 H   0  0  0  0  0  0  0  0  0  0  0  0
   -0.9475    8.6590   -0.9006 C   0  0  0  0  0  0  0  0  0  0  0  0
   -1.6557    9.3166   -0.6689 H   0  0  0  0  0  0  0  0  0  0  0  0
   -0.0869    8.9110   -0.4739 H   0  0  0  0  0  0  0  0  0  0  0  0
   -0.7879    8.5574   -2.4020 C   0  0  0  0  0  0  0  0  0  0  0  0
   -0.8067    9.4545   -2.8118 H   0  0  0  0  0  0  0  0  0  0  0  0
    0.0385    8.0691   -2.6281 H   0  0  0  0  0  0  0  0  0  0  0  0
   -2.0160    7.7580   -2.7810 C   0  0  0  0  0  0  0  0  0  0  0  0
   -2.8273    8.3327   -2.8059 H   0  0  0  0  0  0  0  0  0  0  0  0
   -1.8924    7.2981   -3.6557 H   0  0  0  0  0  0  0  0  0  0  0  0
  1  5  1  0
  5  6  2  0
  6  8  1  0
  8 10  2  0
 10 12  1  0
 12  5  1  0
  1  2  1  0
  1  3  1  0
  1  4  1  0
  6  7  1  0
  8  9  1  0
 10 11  1  0
 12 13  1  0
 14 18  1  0
 18 19  2  0
 18 20  1  0
 20 21  1  0
 21 24  1  0
 24 27  1  0
 27 30  1  0
 30 20  1  0
 14 15  1  0
 14 16  1  0
 14 17  1  0
 21 22  1  0
 21 23  1  0
 24 25  1  0
 24 26  1  0
 27 28  1  0
 27 29  1  0
 30 31  1  0
 30 32  1  0
M  CHG  1   8   1
M  END
>  <PDB_ID>  (10) 
pdb2c4n

>  <RESIDUE_NAME>  (10) 
HIP   PRO

>  <FRAG_NAME>  (10) 
MIMM   N1PA

>  <FRAG_ATOM_NUM>  (10) 
fragi: 13  fragj: 19

>  <atom.prop.CHAIN_ID>  (10) 
A A A A A A A A A A A A A Z Z Z Z Z Z Z Z Z Z Z Z Z Z Z Z Z Z Z

>  <atom.prop.IS_HEAVY_ATOM>  (10) 
1 0 0 0 1 1 0 1 0 1 0 1 0 1 0 0 0 1 1 1 1 0 0 1 0 0 1 0 0 1 0 0

>  <DIFUSE_FUNC_ATOM>  (10) 
n/a

>  <FINAL_SINGLE_POINT_ENERGY>  (10) 
0

>  <NONCOV_INTER_ENERGY_QM>  (10) 
0

>  <FF_Energy>  (10) 
-5.5

>  <QM_Energy>  (10) 
-10.54

>  <Index>  (10) 
36

$$$$
MIMM-pdb1bn8-A-HIP-222:N1PA-pdb1bn8-A-PRO-207
     RDKit          3D

 32 32  0  0  0  0  0  0  0  0999 V2000
   -0.6469    2.7419   -0.0061 C   0  0  0  0  0  0  0  0  0  0  0  0
   -1.6423    2.7563   -0.0818 H   0  0  0  0  0  0  0  0  0  0  0  0
   -0.2413    3.2146   -0.7854 H   0  0  0  0  0  0  0  0  0  0  0  0
   -0.3552    3.2585    0.9083 H   0  0  0  0  0  0  0  0  0  0  0  0
   -0.1867    1.3152   -0.0190 C   0  0  0  0  0  0  0  0  0  0  0  0
    1.0631    0.7967   -0.0000 C   0  0  0  0  0  0  0  0  0  0  0  0
    1.9169    1.3051    0.0082 H   0  0  0  0  0  0  0  0  0  0  0  0
    0.9277   -0.5714    0.0067 N   0  0  0  0  0  4  0  0  0  0  0  0
    1.6799   -1.2309    0.0103 H   0  0  0  0  0  0  0  0  0  0  0  0
   -0.3590   -0.8700    0.0067 C   0  0  0  0  0  0  0  0  0  0  0  0
   -0.7410   -1.7928    0.0123 H   0  0  0  0  0  0  0  0  0  0  0  0
   -1.0631    0.2523    0.0000 N   0  0  0  0  0  0  0  0  0  0  0  0
   -2.0543    0.3169    0.0061 H   0  0  0  0  0  0  0  0  0  0  0  0
    0.0417   -6.0137   -0.0708 C   0  0  0  0  0  0  0  0  0  0  0  0
   -0.4386   -6.8136    0.3273 H   0  0  0  0  0  0  0  0  0  0  0  0
    0.6762   -6.3576   -0.8876 H   0  0  0  0  0  0  0  0  0  0  0  0
    0.6640   -5.5878    0.7162 H   0  0  0  0  0  0  0  0  0  0  0  0
   -0.9988   -5.0035   -0.5267 C   0  0  0  0  0  0  0  0  0  0  0  0
   -0.9488   -3.8109   -0.2101 O   0  0  0  0  0  0  0  0  0  0  0  0
   -1.9880   -5.4615   -1.2861 N   0  0  0  0  0  0  0  0  0  0  0  0
   -3.0486   -4.5953   -1.7732 C   0  0  0  0  0  0  0  0  0  0  0  0
   -2.6707   -3.8109   -2.2770 H   0  0  0  0  0  0  0  0  0  0  0  0
   -3.6705   -4.2623   -0.9422 H   0  0  0  0  0  0  0  0  0  0  0  0
   -3.8027   -5.4472   -2.7814 C   0  0  0  0  0  0  0  0  0  0  0  0
   -4.7890   -5.2382   -2.7587 H   0  0  0  0  0  0  0  0  0  0  0  0
   -3.4680   -5.2756   -3.7168 H   0  0  0  0  0  0  0  0  0  0  0  0
   -3.5483   -6.8541   -2.3751 C   0  0  0  0  0  0  0  0  0  0  0  0
   -4.2608   -7.1739   -1.7352 H   0  0  0  0  0  0  0  0  0  0  0  0
   -3.5568   -7.4634   -3.1796 H   0  0  0  0  0  0  0  0  0  0  0  0
   -2.1976   -6.8639   -1.7158 C   0  0  0  0  0  0  0  0  0  0  0  0
   -2.1794   -7.4762   -0.9211 H   0  0  0  0  0  0  0  0  0  0  0  0
   -1.4755   -7.1421   -2.3566 H   0  0  0  0  0  0  0  0  0  0  0  0
  1  5  1  0
  5  6  2  0
  6  8  1  0
  8 10  2  0
 10 12  1  0
 12  5  1  0
  1  2  1  0
  1  3  1  0
  1  4  1  0
  6  7  1  0
  8  9  1  0
 10 11  1  0
 12 13  1  0
 14 18  1  0
 18 19  2  0
 18 20  1  0
 20 21  1  0
 21 24  1  0
 24 27  1  0
 27 30  1  0
 30 20  1  0
 14 15  1  0
 14 16  1  0
 14 17  1  0
 21 22  1  0
 21 23  1  0
 24 25  1  0
 24 26  1  0
 27 28  1  0
 27 29  1  0
 30 31  1  0
 30 32  1  0
M  CHG  1   8   1
M  END
>  <PDB_ID>  (11) 
pdb1bn8

>  <RESIDUE_NAME>  (11) 
HIP   PRO

>  <FRAG_NAME>  (11) 
MIMM   N1PA

>  <FRAG_ATOM_NUM>  (11) 
fragi: 13  fragj: 19

>  <atom.prop.CHAIN_ID>  (11) 
A A A A A A A A A A A A A Z Z Z Z Z Z Z Z Z Z Z Z Z Z Z Z Z Z Z

>  <atom.prop.IS_HEAVY_ATOM>  (11) 
1 0 0 0 1 1 0 1 0 1 0 1 0 1 0 0 0 1 1 1 1 0 0 1 0 0 1 0 0 1 0 0

>  <DIFUSE_FUNC_ATOM>  (11) 
n/a

>  <FINAL_SINGLE_POINT_ENERGY>  (11) 
0

>  <NONCOV_INTER_ENERGY_QM>  (11) 
0

>  <FF_Energy>  (11) 
-5.76

>  <QM_Energy>  (11) 
-19.92

>  <Index>  (11) 
40

$$$$
MIMM-pdb1c2t-A-HIP-108:N1PA-pdb1c2t-A-PRO-116
     RDKit          3D

 32 32  0  0  0  0  0  0  0  0999 V2000
   -0.6763    2.7397    0.0316 C   0  0  0  0  0  0  0  0  0  0  0  0
   -1.3120    2.8711   -0.7377 H   0  0  0  0  0  0  0  0  0  0  0  0
    0.1168    3.3448   -0.1066 H   0  0  0  0  0  0  0  0  0  0  0  0
   -1.1773    3.0182    0.9587 H   0  0  0  0  0  0  0  0  0  0  0  0
   -0.1943    1.3214    0.0040 C   0  0  0  0  0  0  0  0  0  0  0  0
    1.0562    0.8003   -0.0000 C   0  0  0  0  0  0  0  0  0  0  0  0
    1.9108    1.3123   -0.0000 H   0  0  0  0  0  0  0  0  0  0  0  0
    0.9284   -0.5683   -0.0026 N   0  0  0  0  0  4  0  0  0  0  0  0
    1.6842   -1.2241   -0.0058 H   0  0  0  0  0  0  0  0  0  0  0  0
   -0.3568   -0.8758   -0.0019 C   0  0  0  0  0  0  0  0  0  0  0  0
   -0.7341   -1.7986   -0.0014 H   0  0  0  0  0  0  0  0  0  0  0  0
   -1.0562    0.2452   -0.0000 N   0  0  0  0  0  0  0  0  0  0  0  0
   -2.0541    0.3069   -0.0018 H   0  0  0  0  0  0  0  0  0  0  0  0
    5.1997   -3.1376   -0.7960 C   0  0  0  0  0  0  0  0  0  0  0  0
    5.3087   -4.1538   -0.9836 H   0  0  0  0  0  0  0  0  0  0  0  0
    6.0336   -2.6108   -1.2597 H   0  0  0  0  0  0  0  0  0  0  0  0
    5.2976   -3.0478    0.2858 H   0  0  0  0  0  0  0  0  0  0  0  0
    3.7991   -2.7517   -1.2294 C   0  0  0  0  0  0  0  0  0  0  0  0
    3.0032   -2.2418   -0.4409 O   0  0  0  0  0  0  0  0  0  0  0  0
    3.5053   -2.8931   -2.5328 N   0  0  0  0  0  0  0  0  0  0  0  0
    2.1769   -2.5276   -3.0134 C   0  0  0  0  0  0  0  0  0  0  0  0
    1.9093   -1.6459   -2.7051 H   0  0  0  0  0  0  0  0  0  0  0  0
    1.5442   -3.3050   -2.5850 H   0  0  0  0  0  0  0  0  0  0  0  0
    2.2930   -2.7021   -4.5416 C   0  0  0  0  0  0  0  0  0  0  0  0
    2.0125   -3.6033   -4.8233 H   0  0  0  0  0  0  0  0  0  0  0  0
    1.8032   -1.9970   -5.0228 H   0  0  0  0  0  0  0  0  0  0  0  0
    3.8210   -2.5326   -4.7742 C   0  0  0  0  0  0  0  0  0  0  0  0
    4.0613   -2.8995   -5.6409 H   0  0  0  0  0  0  0  0  0  0  0  0
    4.0682   -1.6020   -4.6495 H   0  0  0  0  0  0  0  0  0  0  0  0
    4.3386   -3.4070   -3.6329 C   0  0  0  0  0  0  0  0  0  0  0  0
    4.1532   -4.3564   -3.8043 H   0  0  0  0  0  0  0  0  0  0  0  0
    5.2932   -3.2392   -3.4645 H   0  0  0  0  0  0  0  0  0  0  0  0
  1  5  1  0
  5  6  2  0
  6  8  1  0
  8 10  2  0
 10 12  1  0
 12  5  1  0
  1  2  1  0
  1  3  1  0
  1  4  1  0
  6  7  1  0
  8  9  1  0
 10 11  1  0
 12 13  1  0
 14 18  1  0
 18 19  2  0
 18 20  1  0
 20 21  1  0
 21 24  1  0
 24 27  1  0
 27 30  1  0
 30 20  1  0
 14 15  1  0
 14 16  1  0
 14 17  1  0
 21 22  1  0
 21 23  1  0
 24 25  1  0
 24 26  1  0
 27 28  1  0
 27 29  1  0
 30 31  1  0
 30 32  1  0
M  CHG  1   8   1
M  END
>  <PDB_ID>  (12) 
pdb1c2t

>  <RESIDUE_NAME>  (12) 
HIP   PRO

>  <FRAG_NAME>  (12) 
MIMM   N1PA

>  <FRAG_ATOM_NUM>  (12) 
fragi: 13  fragj: 19

>  <atom.prop.CHAIN_ID>  (12) 
A A A A A A A A A A A A A Z Z Z Z Z Z Z Z Z Z Z Z Z Z Z Z Z Z Z

>  <atom.prop.IS_HEAVY_ATOM>  (12) 
1 0 0 0 1 1 0 1 0 1 0 1 0 1 0 0 0 1 1 1 1 0 0 1 0 0 1 0 0 1 0 0

>  <DIFUSE_FUNC_ATOM>  (12) 
n/a

>  <FINAL_SINGLE_POINT_ENERGY>  (12) 
0

>  <NONCOV_INTER_ENERGY_QM>  (12) 
0

>  <FF_Energy>  (12) 
-17.83

>  <QM_Energy>  (12) 
-25.1

>  <Index>  (12) 
41

$$$$
MIMM-pdb1c3x-C-HIP-184:N1PA-pdb1c3x-C-PRO-191
     RDKit          3D

 32 32  0  0  0  0  0  0  0  0999 V2000
   -0.6674    2.7323   -0.1357 C   0  0  0  0  0  0  0  0  0  0  0  0
   -1.6745    2.7293   -0.1190 H   0  0  0  0  0  0  0  0  0  0  0  0
   -0.3673    3.0851   -1.0299 H   0  0  0  0  0  0  0  0  0  0  0  0
   -0.2970    3.3890    0.6515 H   0  0  0  0  0  0  0  0  0  0  0  0
   -0.1940    1.3207   -0.0088 C   0  0  0  0  0  0  0  0  0  0  0  0
    1.0588    0.8027   -0.0000 C   0  0  0  0  0  0  0  0  0  0  0  0
    1.9115    1.3139    0.0040 H   0  0  0  0  0  0  0  0  0  0  0  0
    0.9278   -0.5667    0.0034 N   0  0  0  0  0  4  0  0  0  0  0  0
    1.6832   -1.2236    0.0052 H   0  0  0  0  0  0  0  0  0  0  0  0
   -0.3597   -0.8779    0.0026 C   0  0  0  0  0  0  0  0  0  0  0  0
   -0.7338   -1.8002    0.0054 H   0  0  0  0  0  0  0  0  0  0  0  0
   -1.0588    0.2435    0.0000 N   0  0  0  0  0  0  0  0  0  0  0  0
   -2.0556    0.3070    0.0030 H   0  0  0  0  0  0  0  0  0  0  0  0
    5.0227   -0.6545    1.5093 C   0  0  0  0  0  0  0  0  0  0  0  0
    5.9048   -0.9618    1.8550 H   0  0  0  0  0  0  0  0  0  0  0  0
    5.1760    0.1695    0.8125 H   0  0  0  0  0  0  0  0  0  0  0  0
    4.3765   -0.3338    2.3264 H   0  0  0  0  0  0  0  0  0  0  0  0
    4.3850   -1.8018    0.7394 C   0  0  0  0  0  0  0  0  0  0  0  0
    3.3690   -1.6162    0.0493 O   0  0  0  0  0  0  0  0  0  0  0  0
    5.0038   -2.9902    0.7875 N   0  0  0  0  0  0  0  0  0  0  0  0
    4.4326   -4.1378    0.0745 C   0  0  0  0  0  0  0  0  0  0  0  0
    4.0266   -3.8612   -0.7850 H   0  0  0  0  0  0  0  0  0  0  0  0
    3.6889   -4.5906    0.7302 H   0  0  0  0  0  0  0  0  0  0  0  0
    5.6539   -5.0316   -0.1153 C   0  0  0  0  0  0  0  0  0  0  0  0
    5.3858   -5.9675   -0.2828 H   0  0  0  0  0  0  0  0  0  0  0  0
    6.2361   -4.6885   -0.8342 H   0  0  0  0  0  0  0  0  0  0  0  0
    6.3048   -4.8888    1.2213 C   0  0  0  0  0  0  0  0  0  0  0  0
    5.7648   -5.3009    1.9305 H   0  0  0  0  0  0  0  0  0  0  0  0
    7.2280   -5.2245    1.2093 H   0  0  0  0  0  0  0  0  0  0  0  0
    6.3026   -3.3514    1.3798 C   0  0  0  0  0  0  0  0  0  0  0  0
    6.3433   -3.1023    2.3358 H   0  0  0  0  0  0  0  0  0  0  0  0
    7.0533   -2.9502    0.8739 H   0  0  0  0  0  0  0  0  0  0  0  0
  1  5  1  0
  5  6  2  0
  6  8  1  0
  8 10  2  0
 10 12  1  0
 12  5  1  0
  1  2  1  0
  1  3  1  0
  1  4  1  0
  6  7  1  0
  8  9  1  0
 10 11  1  0
 12 13  1  0
 14 18  1  0
 18 19  2  0
 18 20  1  0
 20 21  1  0
 21 24  1  0
 24 27  1  0
 27 30  1  0
 30 20  1  0
 14 15  1  0
 14 16  1  0
 14 17  1  0
 21 22  1  0
 21 23  1  0
 24 25  1  0
 24 26  1  0
 27 28  1  0
 27 29  1  0
 30 31  1  0
 30 32  1  0
M  CHG  1   8   1
M  END
>  <PDB_ID>  (13) 
pdb1c3x

>  <RESIDUE_NAME>  (13) 
HIP   PRO

>  <FRAG_NAME>  (13) 
MIMM   N1PA

>  <FRAG_ATOM_NUM>  (13) 
fragi: 13  fragj: 19

>  <atom.prop.CHAIN_ID>  (13) 
A A A A A A A A A A A A A Z Z Z Z Z Z Z Z Z Z Z Z Z Z Z Z Z Z Z

>  <atom.prop.IS_HEAVY_ATOM>  (13) 
1 0 0 0 1 1 0 1 0 1 0 1 0 1 0 0 0 1 1 1 1 0 0 1 0 0 1 0 0 1 0 0

>  <DIFUSE_FUNC_ATOM>  (13) 
n/a

>  <FINAL_SINGLE_POINT_ENERGY>  (13) 
0

>  <NONCOV_INTER_ENERGY_QM>  (13) 
0

>  <FF_Energy>  (13) 
-16.54

>  <QM_Energy>  (13) 
-26.07

>  <Index>  (13) 
47

$$$$
MIMM-pdb1dju-A-HIP-212:N1PA-pdb1dju-A-PRO-169
     RDKit          3D

 32 32  0  0  0  0  0  0  0  0999 V2000
   -0.5356    2.7779    0.0564 C   0  0  0  0  0  0  0  0  0  0  0  0
   -1.2133    2.9696   -0.6480 H   0  0  0  0  0  0  0  0  0  0  0  0
    0.3103    3.2657   -0.1392 H   0  0  0  0  0  0  0  0  0  0  0  0
   -0.9190    3.0831    1.0300 H   0  0  0  0  0  0  0  0  0  0  0  0
   -0.2282    1.2813    0.0065 C   0  0  0  0  0  0  0  0  0  0  0  0
    1.0481    0.7802   -0.0000 C   0  0  0  0  0  0  0  0  0  0  0  0
    1.8758    1.3411   -0.0012 H   0  0  0  0  0  0  0  0  0  0  0  0
    0.9212   -0.5112   -0.0025 N   0  0  0  0  0  4  0  0  0  0  0  0
    1.6885   -1.2004   -0.0046 H   0  0  0  0  0  0  0  0  0  0  0  0
   -0.3408   -0.8565   -0.0031 C   0  0  0  0  0  0  0  0  0  0  0  0
   -0.6930   -1.7885   -0.0040 H   0  0  0  0  0  0  0  0  0  0  0  0
   -1.0481    0.2382   -0.0000 N   0  0  0  0  0  0  0  0  0  0  0  0
   -2.0579    0.2709   -0.0029 H   0  0  0  0  0  0  0  0  0  0  0  0
   -4.7343   -3.4839    0.2093 C   0  0  0  0  0  0  0  0  0  0  0  0
   -5.7175   -3.4540   -0.0457 H   0  0  0  0  0  0  0  0  0  0  0  0
   -4.3949   -4.5157    0.1179 H   0  0  0  0  0  0  0  0  0  0  0  0
   -4.6053   -3.1473    1.2379 H   0  0  0  0  0  0  0  0  0  0  0  0
   -3.9883   -2.5249   -0.7073 C   0  0  0  0  0  0  0  0  0  0  0  0
   -2.7755   -2.4591   -0.5284 O   0  0  0  0  0  0  0  0  0  0  0  0
   -4.5463   -1.7092   -1.6169 N   0  0  0  0  0  0  0  0  0  0  0  0
   -5.9654   -1.6302   -1.9855 C   0  0  0  0  0  0  0  0  0  0  0  0
   -6.5183   -1.3458   -1.1830 H   0  0  0  0  0  0  0  0  0  0  0  0
   -6.3357   -2.5629   -2.4110 H   0  0  0  0  0  0  0  0  0  0  0  0
   -6.1062   -0.5367   -2.9704 C   0  0  0  0  0  0  0  0  0  0  0  0
   -6.0052   -0.8543   -3.9043 H   0  0  0  0  0  0  0  0  0  0  0  0
   -6.9523   -0.0330   -2.8580 H   0  0  0  0  0  0  0  0  0  0  0  0
   -4.9359    0.3185   -2.5827 C   0  0  0  0  0  0  0  0  0  0  0  0
   -4.6688    0.9181   -3.3434 H   0  0  0  0  0  0  0  0  0  0  0  0
   -5.1638    0.8886   -1.7880 H   0  0  0  0  0  0  0  0  0  0  0  0
   -3.8085   -0.6438   -2.2422 C   0  0  0  0  0  0  0  0  0  0  0  0
   -3.3466   -0.9469   -3.0665 H   0  0  0  0  0  0  0  0  0  0  0  0
   -3.1643   -0.2213   -1.6155 H   0  0  0  0  0  0  0  0  0  0  0  0
  1  5  1  0
  5  6  2  0
  6  8  1  0
  8 10  2  0
 10 12  1  0
 12  5  1  0
  1  2  1  0
  1  3  1  0
  1  4  1  0
  6  7  1  0
  8  9  1  0
 10 11  1  0
 12 13  1  0
 14 18  1  0
 18 19  2  0
 18 20  1  0
 20 21  1  0
 21 24  1  0
 24 27  1  0
 27 30  1  0
 30 20  1  0
 14 15  1  0
 14 16  1  0
 14 17  1  0
 21 22  1  0
 21 23  1  0
 24 25  1  0
 24 26  1  0
 27 28  1  0
 27 29  1  0
 30 31  1  0
 30 32  1  0
M  CHG  1   8   1
M  END
>  <PDB_ID>  (14) 
pdb1dju

>  <RESIDUE_NAME>  (14) 
HIP   PRO

>  <FRAG_NAME>  (14) 
MIMM   N1PA

>  <FRAG_ATOM_NUM>  (14) 
fragi: 13  fragj: 19

>  <atom.prop.CHAIN_ID>  (14) 
A A A A A A A A A A A A A Z Z Z Z Z Z Z Z Z Z Z Z Z Z Z Z Z Z Z

>  <atom.prop.IS_HEAVY_ATOM>  (14) 
1 0 0 0 1 1 0 1 0 1 0 1 0 1 0 0 0 1 1 1 1 0 0 1 0 0 1 0 0 1 0 0

>  <DIFUSE_FUNC_ATOM>  (14) 
n/a

>  <FINAL_SINGLE_POINT_ENERGY>  (14) 
0

>  <NONCOV_INTER_ENERGY_QM>  (14) 
0

>  <FF_Energy>  (14) 
-10.04

>  <QM_Energy>  (14) 
-17.61

>  <Index>  (14) 
67

$$$$
MIMM-pdb2g6g-A-HIP-364:N1PA-pdb2g6g-A-PRO-441
     RDKit          3D

 32 32  0  0  0  0  0  0  0  0999 V2000
   -0.6759    2.7364   -0.0099 C   0  0  0  0  0  0  0  0  0  0  0  0
    0.1243    3.3407    0.0962 H   0  0  0  0  0  0  0  0  0  0  0  0
   -1.2731    2.8642    0.7936 H   0  0  0  0  0  0  0  0  0  0  0  0
   -1.2229    3.0272   -0.9068 H   0  0  0  0  0  0  0  0  0  0  0  0
   -0.1963    1.3198   -0.0154 C   0  0  0  0  0  0  0  0  0  0  0  0
    1.0557    0.8007   -0.0000 C   0  0  0  0  0  0  0  0  0  0  0  0
    1.9093    1.3137    0.0094 H   0  0  0  0  0  0  0  0  0  0  0  0
    0.9277   -0.5666    0.0018 N   0  0  0  0  0  4  0  0  0  0  0  0
    1.6848   -1.2225   -0.0008 H   0  0  0  0  0  0  0  0  0  0  0  0
   -0.3555   -0.8760    0.0059 C   0  0  0  0  0  0  0  0  0  0  0  0
   -0.7314   -1.7982    0.0136 H   0  0  0  0  0  0  0  0  0  0  0  0
   -1.0557    0.2444    0.0000 N   0  0  0  0  0  0  0  0  0  0  0  0
   -2.0539    0.3037    0.0050 H   0  0  0  0  0  0  0  0  0  0  0  0
   -5.8416    1.9115   -0.6309 C   0  0  0  0  0  0  0  0  0  0  0  0
   -6.7839    1.6574   -0.4155 H   0  0  0  0  0  0  0  0  0  0  0  0
   -5.6329    2.8945   -0.2088 H   0  0  0  0  0  0  0  0  0  0  0  0
   -5.7137    1.9185   -1.7134 H   0  0  0  0  0  0  0  0  0  0  0  0
   -4.9060    0.9168    0.0072 C   0  0  0  0  0  0  0  0  0  0  0  0
   -3.7761    0.7385   -0.4733 O   0  0  0  0  0  0  0  0  0  0  0  0
   -5.3784    0.2631    1.0906 N   0  0  0  0  0  0  0  0  0  0  0  0
   -4.5351   -0.5389    1.9622 C   0  0  0  0  0  0  0  0  0  0  0  0
   -3.8869    0.0520    2.4779 H   0  0  0  0  0  0  0  0  0  0  0  0
   -3.9961   -1.3223    1.4293 H   0  0  0  0  0  0  0  0  0  0  0  0
   -5.5277   -1.1469    2.9597 C   0  0  0  0  0  0  0  0  0  0  0  0
   -5.3141   -2.1130    3.1291 H   0  0  0  0  0  0  0  0  0  0  0  0
   -5.5027   -0.6521    3.8325 H   0  0  0  0  0  0  0  0  0  0  0  0
   -6.8764   -1.0081    2.3079 C   0  0  0  0  0  0  0  0  0  0  0  0
   -7.0466   -1.7826    1.6997 H   0  0  0  0  0  0  0  0  0  0  0  0
   -7.5924   -0.9656    3.0043 H   0  0  0  0  0  0  0  0  0  0  0  0
   -6.7758    0.2701    1.5486 C   0  0  0  0  0  0  0  0  0  0  0  0
   -7.3988    0.2891    0.7680 H   0  0  0  0  0  0  0  0  0  0  0  0
   -6.9485    1.0648    2.1317 H   0  0  0  0  0  0  0  0  0  0  0  0
  1  5  1  0
  5  6  2  0
  6  8  1  0
  8 10  2  0
 10 12  1  0
 12  5  1  0
  1  2  1  0
  1  3  1  0
  1  4  1  0
  6  7  1  0
  8  9  1  0
 10 11  1  0
 12 13  1  0
 14 18  1  0
 18 19  2  0
 18 20  1  0
 20 21  1  0
 21 24  1  0
 24 27  1  0
 27 30  1  0
 30 20  1  0
 14 15  1  0
 14 16  1  0
 14 17  1  0
 21 22  1  0
 21 23  1  0
 24 25  1  0
 24 26  1  0
 27 28  1  0
 27 29  1  0
 30 31  1  0
 30 32  1  0
M  CHG  1   8   1
M  END
>  <PDB_ID>  (15) 
pdb2g6g

>  <RESIDUE_NAME>  (15) 
HIP   PRO

>  <FRAG_NAME>  (15) 
MIMM   N1PA

>  <FRAG_ATOM_NUM>  (15) 
fragi: 13  fragj: 19

>  <atom.prop.CHAIN_ID>  (15) 
A A A A A A A A A A A A A Z Z Z Z Z Z Z Z Z Z Z Z Z Z Z Z Z Z Z

>  <atom.prop.IS_HEAVY_ATOM>  (15) 
1 0 0 0 1 1 0 1 0 1 0 1 0 1 0 0 0 1 1 1 1 0 0 1 0 0 1 0 0 1 0 0

>  <DIFUSE_FUNC_ATOM>  (15) 
n/a

>  <FINAL_SINGLE_POINT_ENERGY>  (15) 
0

>  <NONCOV_INTER_ENERGY_QM>  (15) 
0

>  <FF_Energy>  (15) 
-17.11

>  <QM_Energy>  (15) 
-26.04

>  <Index>  (15) 
88

$$$$
MIMM-pdb1g13-C-HIP-106:N1PA-pdb1g13-C-PRO-89
     RDKit          3D

 32 32  0  0  0  0  0  0  0  0999 V2000
   -0.6662    2.7342   -0.0280 C   0  0  0  0  0  0  0  0  0  0  0  0
   -1.4996    2.7816   -0.5957 H   0  0  0  0  0  0  0  0  0  0  0  0
    0.0435    3.2997   -0.4698 H   0  0  0  0  0  0  0  0  0  0  0  0
   -0.8871    3.1560    0.9525 H   0  0  0  0  0  0  0  0  0  0  0  0
   -0.1932    1.3201   -0.0006 C   0  0  0  0  0  0  0  0  0  0  0  0
    1.0560    0.8003    0.0000 C   0  0  0  0  0  0  0  0  0  0  0  0
    1.9107    1.3120    0.0003 H   0  0  0  0  0  0  0  0  0  0  0  0
    0.9269   -0.5667    0.0015 N   0  0  0  0  0  4  0  0  0  0  0  0
    1.6836   -1.2228    0.0020 H   0  0  0  0  0  0  0  0  0  0  0  0
   -0.3579   -0.8765   -0.0003 C   0  0  0  0  0  0  0  0  0  0  0  0
   -0.7338   -1.7982   -0.0008 H   0  0  0  0  0  0  0  0  0  0  0  0
   -1.0560    0.2445   -0.0000 N   0  0  0  0  0  0  0  0  0  0  0  0
   -2.0542    0.3074    0.0001 H   0  0  0  0  0  0  0  0  0  0  0  0
    2.5982   -3.8940    2.0231 C   0  0  0  0  0  0  0  0  0  0  0  0
    2.6472   -4.8828    2.0587 H   0  0  0  0  0  0  0  0  0  0  0  0
    3.3452   -3.5207    2.7236 H   0  0  0  0  0  0  0  0  0  0  0  0
    1.6184   -3.4694    2.2416 H   0  0  0  0  0  0  0  0  0  0  0  0
    3.0560   -3.4858    0.6278 C   0  0  0  0  0  0  0  0  0  0  0  0
    2.6645   -2.4418    0.1058 O   0  0  0  0  0  0  0  0  0  0  0  0
    3.9201   -4.3121    0.0169 N   0  0  0  0  0  0  0  0  0  0  0  0
    4.4945   -4.1161   -1.3186 C   0  0  0  0  0  0  0  0  0  0  0  0
    5.1499   -3.3292   -1.3094 H   0  0  0  0  0  0  0  0  0  0  0  0
    3.7633   -3.9886   -2.1169 H   0  0  0  0  0  0  0  0  0  0  0  0
    5.3389   -5.3734   -1.5127 C   0  0  0  0  0  0  0  0  0  0  0  0
    4.7998   -6.1028   -1.9268 H   0  0  0  0  0  0  0  0  0  0  0  0
    6.1389   -5.1817   -2.0743 H   0  0  0  0  0  0  0  0  0  0  0  0
    5.7382   -5.7311   -0.1150 C   0  0  0  0  0  0  0  0  0  0  0  0
    6.0459   -6.6709   -0.0686 H   0  0  0  0  0  0  0  0  0  0  0  0
    6.4350   -5.1119    0.2183 H   0  0  0  0  0  0  0  0  0  0  0  0
    4.4451   -5.5453    0.6259 C   0  0  0  0  0  0  0  0  0  0  0  0
    3.8219   -6.3056    0.4715 H   0  0  0  0  0  0  0  0  0  0  0  0
    4.5970   -5.4181    1.6019 H   0  0  0  0  0  0  0  0  0  0  0  0
  1  5  1  0
  5  6  2  0
  6  8  1  0
  8 10  2  0
 10 12  1  0
 12  5  1  0
  1  2  1  0
  1  3  1  0
  1  4  1  0
  6  7  1  0
  8  9  1  0
 10 11  1  0
 12 13  1  0
 14 18  1  0
 18 19  2  0
 18 20  1  0
 20 21  1  0
 21 24  1  0
 24 27  1  0
 27 30  1  0
 30 20  1  0
 14 15  1  0
 14 16  1  0
 14 17  1  0
 21 22  1  0
 21 23  1  0
 24 25  1  0
 24 26  1  0
 27 28  1  0
 27 29  1  0
 30 31  1  0
 30 32  1  0
M  CHG  1   8   1
M  END
>  <PDB_ID>  (16) 
pdb1g13

>  <RESIDUE_NAME>  (16) 
HIP   PRO

>  <FRAG_NAME>  (16) 
MIMM   N1PA

>  <FRAG_ATOM_NUM>  (16) 
fragi: 13  fragj: 19

>  <atom.prop.CHAIN_ID>  (16) 
A A A A A A A A A A A A A Z Z Z Z Z Z Z Z Z Z Z Z Z Z Z Z Z Z Z

>  <atom.prop.IS_HEAVY_ATOM>  (16) 
1 0 0 0 1 1 0 1 0 1 0 1 0 1 0 0 0 1 1 1 1 0 0 1 0 0 1 0 0 1 0 0

>  <DIFUSE_FUNC_ATOM>  (16) 
n/a

>  <FINAL_SINGLE_POINT_ENERGY>  (16) 
0

>  <NONCOV_INTER_ENERGY_QM>  (16) 
0

>  <FF_Energy>  (16) 
-17.39

>  <QM_Energy>  (16) 
-26.75

>  <Index>  (16) 
109

$$$$
MIMM-pdb1g6o-A-HIP-30:N1PA-pdb1g6o-A-PRO-27
     RDKit          3D

 32 32  0  0  0  0  0  0  0  0999 V2000
   -0.6782    2.7419    0.0125 C   0  0  0  0  0  0  0  0  0  0  0  0
   -1.6212    2.7586   -0.3369 H   0  0  0  0  0  0  0  0  0  0  0  0
   -0.0976    3.2790   -0.6087 H   0  0  0  0  0  0  0  0  0  0  0  0
   -0.6595    3.2029    1.0001 H   0  0  0  0  0  0  0  0  0  0  0  0
   -0.1956    1.3225   -0.0016 C   0  0  0  0  0  0  0  0  0  0  0  0
    1.0578    0.8013    0.0000 C   0  0  0  0  0  0  0  0  0  0  0  0
    1.9115    1.3132    0.0025 H   0  0  0  0  0  0  0  0  0  0  0  0
    0.9296   -0.5699   -0.0009 N   0  0  0  0  0  4  0  0  0  0  0  0
    1.6858   -1.2240   -0.0031 H   0  0  0  0  0  0  0  0  0  0  0  0
   -0.3562   -0.8783    0.0001 C   0  0  0  0  0  0  0  0  0  0  0  0
   -0.7339   -1.7992    0.0025 H   0  0  0  0  0  0  0  0  0  0  0  0
   -1.0578    0.2454    0.0000 N   0  0  0  0  0  0  0  0  0  0  0  0
   -2.0551    0.3056    0.0001 H   0  0  0  0  0  0  0  0  0  0  0  0
   -4.9528   -1.1413    1.9957 C   0  0  0  0  0  0  0  0  0  0  0  0
   -4.3305   -1.0224    2.8034 H   0  0  0  0  0  0  0  0  0  0  0  0
   -5.9586   -1.2758    2.3938 H   0  0  0  0  0  0  0  0  0  0  0  0
   -4.5965   -2.0334    1.4806 H   0  0  0  0  0  0  0  0  0  0  0  0
   -4.7647    0.0540    1.1095 C   0  0  0  0  0  0  0  0  0  0  0  0
   -3.6976    0.6646    1.1081 O   0  0  0  0  0  0  0  0  0  0  0  0
   -5.7770    0.4139    0.3248 N   0  0  0  0  0  0  0  0  0  0  0  0
   -5.4985    1.5906   -0.4981 C   0  0  0  0  0  0  0  0  0  0  0  0
   -4.7156    1.4434   -1.0930 H   0  0  0  0  0  0  0  0  0  0  0  0
   -5.3208    2.4441    0.1563 H   0  0  0  0  0  0  0  0  0  0  0  0
   -6.7698    1.7242   -1.3443 C   0  0  0  0  0  0  0  0  0  0  0  0
   -7.4346    2.3117   -0.8870 H   0  0  0  0  0  0  0  0  0  0  0  0
   -6.5543    2.0955   -2.2445 H   0  0  0  0  0  0  0  0  0  0  0  0
   -7.2576    0.3256   -1.4369 C   0  0  0  0  0  0  0  0  0  0  0  0
   -8.2209    0.3011   -1.6962 H   0  0  0  0  0  0  0  0  0  0  0  0
   -6.7166   -0.1974   -2.0918 H   0  0  0  0  0  0  0  0  0  0  0  0
   -7.0631   -0.1952   -0.0428 C   0  0  0  0  0  0  0  0  0  0  0  0
   -7.7847    0.1126    0.5680 H   0  0  0  0  0  0  0  0  0  0  0  0
   -6.9990   -1.1882   -0.0281 H   0  0  0  0  0  0  0  0  0  0  0  0
  1  5  1  0
  5  6  2  0
  6  8  1  0
  8 10  2  0
 10 12  1  0
 12  5  1  0
  1  2  1  0
  1  3  1  0
  1  4  1  0
  6  7  1  0
  8  9  1  0
 10 11  1  0
 12 13  1  0
 14 18  1  0
 18 19  2  0
 18 20  1  0
 20 21  1  0
 21 24  1  0
 24 27  1  0
 27 30  1  0
 30 20  1  0
 14 15  1  0
 14 16  1  0
 14 17  1  0
 21 22  1  0
 21 23  1  0
 24 25  1  0
 24 26  1  0
 27 28  1  0
 27 29  1  0
 30 31  1  0
 30 32  1  0
M  CHG  1   8   1
M  END
>  <PDB_ID>  (17) 
pdb1g6o

>  <RESIDUE_NAME>  (17) 
HIP   PRO

>  <FRAG_NAME>  (17) 
MIMM   N1PA

>  <FRAG_ATOM_NUM>  (17) 
fragi: 13  fragj: 19

>  <atom.prop.CHAIN_ID>  (17) 
A A A A A A A A A A A A A Z Z Z Z Z Z Z Z Z Z Z Z Z Z Z Z Z Z Z

>  <atom.prop.IS_HEAVY_ATOM>  (17) 
1 0 0 0 1 1 0 1 0 1 0 1 0 1 0 0 0 1 1 1 1 0 0 1 0 0 1 0 0 1 0 0

>  <DIFUSE_FUNC_ATOM>  (17) 
n/a

>  <FINAL_SINGLE_POINT_ENERGY>  (17) 
0

>  <NONCOV_INTER_ENERGY_QM>  (17) 
0

>  <FF_Energy>  (17) 
-14.45

>  <QM_Energy>  (17) 
-21.5

>  <Index>  (17) 
116

$$$$
MIMM-pdb1gec-E-HIP-81:N1PA-pdb1gec-E-PRO-103
     RDKit          3D

 32 32  0  0  0  0  0  0  0  0999 V2000
   -0.6581    2.7284   -0.0970 C   0  0  0  0  0  0  0  0  0  0  0  0
   -1.6053    2.7277   -0.4435 H   0  0  0  0  0  0  0  0  0  0  0  0
   -0.0805    3.2129   -0.7677 H   0  0  0  0  0  0  0  0  0  0  0  0
   -0.6241    3.2599    0.8541 H   0  0  0  0  0  0  0  0  0  0  0  0
   -0.1907    1.3156   -0.0146 C   0  0  0  0  0  0  0  0  0  0  0  0
    1.0580    0.7986    0.0000 C   0  0  0  0  0  0  0  0  0  0  0  0
    1.9118    1.3117    0.0040 H   0  0  0  0  0  0  0  0  0  0  0  0
    0.9245   -0.5620    0.0087 N   0  0  0  0  0  4  0  0  0  0  0  0
    1.6798   -1.2238    0.0160 H   0  0  0  0  0  0  0  0  0  0  0  0
   -0.3605   -0.8735    0.0045 C   0  0  0  0  0  0  0  0  0  0  0  0
   -0.7337   -1.7970    0.0059 H   0  0  0  0  0  0  0  0  0  0  0  0
   -1.0580    0.2448    0.0000 N   0  0  0  0  0  0  0  0  0  0  0  0
   -2.0540    0.3105    0.0056 H   0  0  0  0  0  0  0  0  0  0  0  0
    1.5730   -3.7285    0.4952 C   0  0  0  0  0  0  0  0  0  0  0  0
    0.5990   -4.0733    0.6531 H   0  0  0  0  0  0  0  0  0  0  0  0
    2.1345   -4.6094    0.5261 H   0  0  0  0  0  0  0  0  0  0  0  0
    1.6342   -3.3162   -0.5119 H   0  0  0  0  0  0  0  0  0  0  0  0
    1.9741   -2.8687    1.7178 C   0  0  0  0  0  0  0  0  0  0  0  0
    3.1766   -2.6665    1.9682 O   0  0  0  0  0  0  0  0  0  0  0  0
    1.0073   -2.5398    2.6054 N   0  0  0  0  0  0  0  0  0  0  0  0
    1.0966   -1.7375    3.8413 C   0  0  0  0  0  0  0  0  0  0  0  0
    0.1677   -1.2919    4.0394 H   0  0  0  0  0  0  0  0  0  0  0  0
    1.8754   -0.9856    3.9688 H   0  0  0  0  0  0  0  0  0  0  0  0
    1.1245   -2.8281    4.9353 C   0  0  0  0  0  0  0  0  0  0  0  0
    2.0540   -3.0372    5.2166 H   0  0  0  0  0  0  0  0  0  0  0  0
    0.5722   -2.5714    5.7188 H   0  0  0  0  0  0  0  0  0  0  0  0
    0.4949   -4.0928    4.2510 C   0  0  0  0  0  0  0  0  0  0  0  0
    1.1820   -4.8121    4.2019 H   0  0  0  0  0  0  0  0  0  0  0  0
   -0.2849   -4.3980    4.7892 H   0  0  0  0  0  0  0  0  0  0  0  0
    0.0595   -3.6437    2.8466 C   0  0  0  0  0  0  0  0  0  0  0  0
    0.1849   -4.3706    2.1924 H   0  0  0  0  0  0  0  0  0  0  0  0
   -0.8723   -3.3182    2.8568 H   0  0  0  0  0  0  0  0  0  0  0  0
  1  5  1  0
  5  6  2  0
  6  8  1  0
  8 10  2  0
 10 12  1  0
 12  5  1  0
  1  2  1  0
  1  3  1  0
  1  4  1  0
  6  7  1  0
  8  9  1  0
 10 11  1  0
 12 13  1  0
 14 18  1  0
 18 19  2  0
 18 20  1  0
 20 21  1  0
 21 24  1  0
 24 27  1  0
 27 30  1  0
 30 20  1  0
 14 15  1  0
 14 16  1  0
 14 17  1  0
 21 22  1  0
 21 23  1  0
 24 25  1  0
 24 26  1  0
 27 28  1  0
 27 29  1  0
 30 31  1  0
 30 32  1  0
M  CHG  1   8   1
M  END
>  <PDB_ID>  (18) 
pdb1gec

>  <RESIDUE_NAME>  (18) 
HIP   PRO

>  <FRAG_NAME>  (18) 
MIMM   N1PA

>  <FRAG_ATOM_NUM>  (18) 
fragi: 13  fragj: 19

>  <atom.prop.CHAIN_ID>  (18) 
A A A A A A A A A A A A A Z Z Z Z Z Z Z Z Z Z Z Z Z Z Z Z Z Z Z

>  <atom.prop.IS_HEAVY_ATOM>  (18) 
1 0 0 0 1 1 0 1 0 1 0 1 0 1 0 0 0 1 1 1 1 0 0 1 0 0 1 0 0 1 0 0

>  <DIFUSE_FUNC_ATOM>  (18) 
n/a

>  <FINAL_SINGLE_POINT_ENERGY>  (18) 
0

>  <NONCOV_INTER_ENERGY_QM>  (18) 
0

>  <FF_Energy>  (18) 
1.71

>  <QM_Energy>  (18) 
-6.76

>  <Index>  (18) 
120

$$$$
MIMM-pdb1gz0-C-HIP-41:N1PA-pdb1gz0-C-PRO-38
     RDKit          3D

 32 32  0  0  0  0  0  0  0  0999 V2000
   -0.6708    2.7419   -0.0053 C   0  0  0  0  0  0  0  0  0  0  0  0
   -1.1389    2.9152   -0.8797 H   0  0  0  0  0  0  0  0  0  0  0  0
    0.1343    3.3448    0.0476 H   0  0  0  0  0  0  0  0  0  0  0  0
   -1.3485    2.9870    0.8125 H   0  0  0  0  0  0  0  0  0  0  0  0
   -0.1944    1.3211    0.0004 C   0  0  0  0  0  0  0  0  0  0  0  0
    1.0564    0.8013   -0.0000 C   0  0  0  0  0  0  0  0  0  0  0  0
    1.9106    1.3129    0.0004 H   0  0  0  0  0  0  0  0  0  0  0  0
    0.9274   -0.5669   -0.0004 N   0  0  0  0  0  4  0  0  0  0  0  0
    1.6844   -1.2231   -0.0014 H   0  0  0  0  0  0  0  0  0  0  0  0
   -0.3575   -0.8778   -0.0007 C   0  0  0  0  0  0  0  0  0  0  0  0
   -0.7331   -1.7992   -0.0000 H   0  0  0  0  0  0  0  0  0  0  0  0
   -1.0564    0.2436   -0.0000 N   0  0  0  0  0  0  0  0  0  0  0  0
   -2.0542    0.3051   -0.0006 H   0  0  0  0  0  0  0  0  0  0  0  0
   -4.2458   -1.2811   -2.4791 C   0  0  0  0  0  0  0  0  0  0  0  0
   -4.2638   -1.6320   -1.5263 H   0  0  0  0  0  0  0  0  0  0  0  0
   -5.2513   -1.3581   -2.8928 H   0  0  0  0  0  0  0  0  0  0  0  0
   -3.5648   -1.9327   -3.0267 H   0  0  0  0  0  0  0  0  0  0  0  0
   -3.7028    0.1522   -2.4471 C   0  0  0  0  0  0  0  0  0  0  0  0
   -3.4377    0.6900   -1.3708 O   0  0  0  0  0  0  0  0  0  0  0  0
   -3.5485    0.7944   -3.6221 N   0  0  0  0  0  0  0  0  0  0  0  0
   -3.0326    2.1669   -3.6632 C   0  0  0  0  0  0  0  0  0  0  0  0
   -2.0590    2.1872   -3.3608 H   0  0  0  0  0  0  0  0  0  0  0  0
   -3.6272    2.8765   -3.0878 H   0  0  0  0  0  0  0  0  0  0  0  0
   -3.0241    2.4912   -5.1579 C   0  0  0  0  0  0  0  0  0  0  0  0
   -3.1937    3.4614   -5.3107 H   0  0  0  0  0  0  0  0  0  0  0  0
   -2.1577    2.2277   -5.5726 H   0  0  0  0  0  0  0  0  0  0  0  0
   -4.1494    1.6608   -5.6887 C   0  0  0  0  0  0  0  0  0  0  0  0
   -5.0246    2.0609   -5.4498 H   0  0  0  0  0  0  0  0  0  0  0  0
   -4.0694    1.5466   -6.6700 H   0  0  0  0  0  0  0  0  0  0  0  0
   -3.9392    0.3508   -4.9724 C   0  0  0  0  0  0  0  0  0  0  0  0
   -4.7775   -0.1836   -4.9377 H   0  0  0  0  0  0  0  0  0  0  0  0
   -3.2097   -0.1816   -5.3929 H   0  0  0  0  0  0  0  0  0  0  0  0
  1  5  1  0
  5  6  2  0
  6  8  1  0
  8 10  2  0
 10 12  1  0
 12  5  1  0
  1  2  1  0
  1  3  1  0
  1  4  1  0
  6  7  1  0
  8  9  1  0
 10 11  1  0
 12 13  1  0
 14 18  1  0
 18 19  2  0
 18 20  1  0
 20 21  1  0
 21 24  1  0
 24 27  1  0
 27 30  1  0
 30 20  1  0
 14 15  1  0
 14 16  1  0
 14 17  1  0
 21 22  1  0
 21 23  1  0
 24 25  1  0
 24 26  1  0
 27 28  1  0
 27 29  1  0
 30 31  1  0
 30 32  1  0
M  CHG  1   8   1
M  END
>  <PDB_ID>  (19) 
pdb1gz0

>  <RESIDUE_NAME>  (19) 
HIP   PRO

>  <FRAG_NAME>  (19) 
MIMM   N1PA

>  <FRAG_ATOM_NUM>  (19) 
fragi: 13  fragj: 19

>  <atom.prop.CHAIN_ID>  (19) 
A A A A A A A A A A A A A Z Z Z Z Z Z Z Z Z Z Z Z Z Z Z Z Z Z Z

>  <atom.prop.IS_HEAVY_ATOM>  (19) 
1 0 0 0 1 1 0 1 0 1 0 1 0 1 0 0 0 1 1 1 1 0 0 1 0 0 1 0 0 1 0 0

>  <DIFUSE_FUNC_ATOM>  (19) 
n/a

>  <FINAL_SINGLE_POINT_ENERGY>  (19) 
0

>  <NONCOV_INTER_ENERGY_QM>  (19) 
0

>  <FF_Energy>  (19) 
-14.1

>  <QM_Energy>  (19) 
-21.08

>  <Index>  (19) 
136

$$$$
MIMM-pdb2nnj-A-HIP-411:N1PA-pdb2nnj-A-PRO-404
     RDKit          3D

 32 32  0  0  0  0  0  0  0  0999 V2000
   -0.6782    2.7354    0.0129 C   0  0  0  0  0  0  0  0  0  0  0  0
   -1.6462    2.7391    0.2932 H   0  0  0  0  0  0  0  0  0  0  0  0
   -0.6216    3.0951   -0.9270 H   0  0  0  0  0  0  0  0  0  0  0  0
   -0.1184    3.3957    0.6752 H   0  0  0  0  0  0  0  0  0  0  0  0
   -0.1946    1.3192    0.0048 C   0  0  0  0  0  0  0  0  0  0  0  0
    1.0558    0.8006   -0.0000 C   0  0  0  0  0  0  0  0  0  0  0  0
    1.9101    1.3142   -0.0015 H   0  0  0  0  0  0  0  0  0  0  0  0
    0.9269   -0.5649   -0.0013 N   0  0  0  0  0  4  0  0  0  0  0  0
    1.6836   -1.2216   -0.0023 H   0  0  0  0  0  0  0  0  0  0  0  0
   -0.3569   -0.8754   -0.0024 C   0  0  0  0  0  0  0  0  0  0  0  0
   -0.7323   -1.7988   -0.0035 H   0  0  0  0  0  0  0  0  0  0  0  0
   -1.0558    0.2439    0.0000 N   0  0  0  0  0  0  0  0  0  0  0  0
   -2.0540    0.3054   -0.0026 H   0  0  0  0  0  0  0  0  0  0  0  0
    2.8209   -5.0743   -0.9343 C   0  0  0  0  0  0  0  0  0  0  0  0
    2.9790   -5.9242   -1.4142 H   0  0  0  0  0  0  0  0  0  0  0  0
    3.6029   -4.3787   -1.2387 H   0  0  0  0  0  0  0  0  0  0  0  0
    2.7914   -5.1733    0.1508 H   0  0  0  0  0  0  0  0  0  0  0  0
    1.4901   -4.5040   -1.4628 C   0  0  0  0  0  0  0  0  0  0  0  0
    0.6032   -4.1558   -0.6852 O   0  0  0  0  0  0  0  0  0  0  0  0
    1.3419   -4.3996   -2.8003 N   0  0  0  0  0  0  0  0  0  0  0  0
    0.1185   -3.8547   -3.3966 C   0  0  0  0  0  0  0  0  0  0  0  0
   -0.0320   -2.8831   -3.0583 H   0  0  0  0  0  0  0  0  0  0  0  0
   -0.8019   -4.4292   -3.2921 H   0  0  0  0  0  0  0  0  0  0  0  0
    0.5172   -3.6471   -4.8570 C   0  0  0  0  0  0  0  0  0  0  0  0
   -0.2855   -3.6941   -5.4496 H   0  0  0  0  0  0  0  0  0  0  0  0
    0.9704   -2.7663   -4.9747 H   0  0  0  0  0  0  0  0  0  0  0  0
    1.4406   -4.7709   -5.1051 C   0  0  0  0  0  0  0  0  0  0  0  0
    0.9491   -5.6327   -5.1931 H   0  0  0  0  0  0  0  0  0  0  0  0
    1.9986   -4.6095   -5.9130 H   0  0  0  0  0  0  0  0  0  0  0  0
    2.3012   -4.7763   -3.8591 C   0  0  0  0  0  0  0  0  0  0  0  0
    2.6794   -5.6799   -3.6840 H   0  0  0  0  0  0  0  0  0  0  0  0
    3.0358   -4.1054   -3.9224 H   0  0  0  0  0  0  0  0  0  0  0  0
  1  5  1  0
  5  6  2  0
  6  8  1  0
  8 10  2  0
 10 12  1  0
 12  5  1  0
  1  2  1  0
  1  3  1  0
  1  4  1  0
  6  7  1  0
  8  9  1  0
 10 11  1  0
 12 13  1  0
 14 18  1  0
 18 19  2  0
 18 20  1  0
 20 21  1  0
 21 24  1  0
 24 27  1  0
 27 30  1  0
 30 20  1  0
 14 15  1  0
 14 16  1  0
 14 17  1  0
 21 22  1  0
 21 23  1  0
 24 25  1  0
 24 26  1  0
 27 28  1  0
 27 29  1  0
 30 31  1  0
 30 32  1  0
M  CHG  1   8   1
M  END
>  <PDB_ID>  (20) 
pdb2nnj

>  <RESIDUE_NAME>  (20) 
HIP   PRO

>  <FRAG_NAME>  (20) 
MIMM   N1PA

>  <FRAG_ATOM_NUM>  (20) 
fragi: 13  fragj: 19

>  <atom.prop.CHAIN_ID>  (20) 
A A A A A A A A A A A A A Z Z Z Z Z Z Z Z Z Z Z Z Z Z Z Z Z Z Z

>  <atom.prop.IS_HEAVY_ATOM>  (20) 
1 0 0 0 1 1 0 1 0 1 0 1 0 1 0 0 0 1 1 1 1 0 0 1 0 0 1 0 0 1 0 0

>  <DIFUSE_FUNC_ATOM>  (20) 
n/a

>  <FINAL_SINGLE_POINT_ENERGY>  (20) 
0

>  <NONCOV_INTER_ENERGY_QM>  (20) 
0

>  <FF_Energy>  (20) 
-8.79

>  <QM_Energy>  (20) 
-14.0

>  <Index>  (20) 
159

$$$$
MIMM-pdb1j2a-A-HIP-144:N1PA-pdb1j2a-A-PRO-153
     RDKit          3D

 32 32  0  0  0  0  0  0  0  0999 V2000
   -0.6711    2.7438    0.0330 C   0  0  0  0  0  0  0  0  0  0  0  0
   -1.3700    2.8585   -0.6815 H   0  0  0  0  0  0  0  0  0  0  0  0
    0.1089    3.3403   -0.1860 H   0  0  0  0  0  0  0  0  0  0  0  0
   -1.0910    3.0473    0.9920 H   0  0  0  0  0  0  0  0  0  0  0  0
   -0.1967    1.3212    0.0016 C   0  0  0  0  0  0  0  0  0  0  0  0
    1.0556    0.8026   -0.0000 C   0  0  0  0  0  0  0  0  0  0  0  0
    1.9089    1.3155    0.0003 H   0  0  0  0  0  0  0  0  0  0  0  0
    0.9280   -0.5672   -0.0006 N   0  0  0  0  0  4  0  0  0  0  0  0
    1.6861   -1.2217   -0.0019 H   0  0  0  0  0  0  0  0  0  0  0  0
   -0.3557   -0.8781   -0.0011 C   0  0  0  0  0  0  0  0  0  0  0  0
   -0.7313   -1.7999   -0.0010 H   0  0  0  0  0  0  0  0  0  0  0  0
   -1.0556    0.2433    0.0000 N   0  0  0  0  0  0  0  0  0  0  0  0
   -2.0548    0.3028   -0.0013 H   0  0  0  0  0  0  0  0  0  0  0  0
   -5.0317    0.4082   -2.0866 C   0  0  0  0  0  0  0  0  0  0  0  0
   -5.8816   -0.0347   -2.3626 H   0  0  0  0  0  0  0  0  0  0  0  0
   -5.1935    1.4861   -2.0817 H   0  0  0  0  0  0  0  0  0  0  0  0
   -4.2095    0.1270   -2.7447 H   0  0  0  0  0  0  0  0  0  0  0  0
   -4.7029   -0.0456   -0.6651 C   0  0  0  0  0  0  0  0  0  0  0  0
   -3.7723    0.4612   -0.0336 O   0  0  0  0  0  0  0  0  0  0  0  0
   -5.4743   -1.0030   -0.1343 N   0  0  0  0  0  0  0  0  0  0  0  0
   -5.2350   -1.5017    1.2231 C   0  0  0  0  0  0  0  0  0  0  0  0
   -5.4263   -0.7761    1.9069 H   0  0  0  0  0  0  0  0  0  0  0  0
   -4.2293   -1.8994    1.3593 H   0  0  0  0  0  0  0  0  0  0  0  0
   -6.2955   -2.5875    1.3851 C   0  0  0  0  0  0  0  0  0  0  0  0
   -5.9595   -3.4668    1.0574 H   0  0  0  0  0  0  0  0  0  0  0  0
   -6.5848   -2.6664    2.3351 H   0  0  0  0  0  0  0  0  0  0  0  0
   -7.4268   -2.0945    0.5229 C   0  0  0  0  0  0  0  0  0  0  0  0
   -8.0370   -2.8399    0.2893 H   0  0  0  0  0  0  0  0  0  0  0  0
   -7.9186   -1.3642    0.9785 H   0  0  0  0  0  0  0  0  0  0  0  0
   -6.7062   -1.5788   -0.7053 C   0  0  0  0  0  0  0  0  0  0  0  0
   -6.4903   -2.3182   -1.3347 H   0  0  0  0  0  0  0  0  0  0  0  0
   -7.2397   -0.8779   -1.1707 H   0  0  0  0  0  0  0  0  0  0  0  0
  1  5  1  0
  5  6  2  0
  6  8  1  0
  8 10  2  0
 10 12  1  0
 12  5  1  0
  1  2  1  0
  1  3  1  0
  1  4  1  0
  6  7  1  0
  8  9  1  0
 10 11  1  0
 12 13  1  0
 14 18  1  0
 18 19  2  0
 18 20  1  0
 20 21  1  0
 21 24  1  0
 24 27  1  0
 27 30  1  0
 30 20  1  0
 14 15  1  0
 14 16  1  0
 14 17  1  0
 21 22  1  0
 21 23  1  0
 24 25  1  0
 24 26  1  0
 27 28  1  0
 27 29  1  0
 30 31  1  0
 30 32  1  0
M  CHG  1   8   1
M  END
>  <PDB_ID>  (21) 
pdb1j2a

>  <RESIDUE_NAME>  (21) 
HIP   PRO

>  <FRAG_NAME>  (21) 
MIMM   N1PA

>  <FRAG_ATOM_NUM>  (21) 
fragi: 13  fragj: 19

>  <atom.prop.CHAIN_ID>  (21) 
A A A A A A A A A A A A A Z Z Z Z Z Z Z Z Z Z Z Z Z Z Z Z Z Z Z

>  <atom.prop.IS_HEAVY_ATOM>  (21) 
1 0 0 0 1 1 0 1 0 1 0 1 0 1 0 0 0 1 1 1 1 0 0 1 0 0 1 0 0 1 0 0

>  <DIFUSE_FUNC_ATOM>  (21) 
n/a

>  <FINAL_SINGLE_POINT_ENERGY>  (21) 
0

>  <NONCOV_INTER_ENERGY_QM>  (21) 
0

>  <FF_Energy>  (21) 
-17.3

>  <QM_Energy>  (21) 
-26.16

>  <Index>  (21) 
160

$$$$
MIMM-pdb1jkm-A-HIP-338:N1PA-pdb1jkm-A-PRO-232
     RDKit          3D

 32 32  0  0  0  0  0  0  0  0999 V2000
   -0.6440    2.7492    0.0585 C   0  0  0  0  0  0  0  0  0  0  0  0
   -1.3892    2.8510   -0.5836 H   0  0  0  0  0  0  0  0  0  0  0  0
    0.1148    3.3394   -0.1769 H   0  0  0  0  0  0  0  0  0  0  0  0
   -0.9948    2.9974    1.0602 H   0  0  0  0  0  0  0  0  0  0  0  0
   -0.1670    1.3193    0.0141 C   0  0  0  0  0  0  0  0  0  0  0  0
    1.0692    0.7884   -0.0000 C   0  0  0  0  0  0  0  0  0  0  0  0
    1.9344    1.2848    0.0016 H   0  0  0  0  0  0  0  0  0  0  0  0
    0.9263   -0.5847   -0.0155 N   0  0  0  0  0  4  0  0  0  0  0  0
    1.6706   -1.2460   -0.0331 H   0  0  0  0  0  0  0  0  0  0  0  0
   -0.3662   -0.8694   -0.0041 C   0  0  0  0  0  0  0  0  0  0  0  0
   -0.7593   -1.7880    0.0014 H   0  0  0  0  0  0  0  0  0  0  0  0
   -1.0692    0.2651    0.0000 N   0  0  0  0  0  0  0  0  0  0  0  0
   -2.0507    0.3409   -0.0065 H   0  0  0  0  0  0  0  0  0  0  0  0
   -3.9850   -3.1908    2.7044 C   0  0  0  0  0  0  0  0  0  0  0  0
   -4.9082   -2.9161    2.3792 H   0  0  0  0  0  0  0  0  0  0  0  0
   -4.1084   -3.6876    3.6667 H   0  0  0  0  0  0  0  0  0  0  0  0
   -3.3684   -2.2956    2.7858 H   0  0  0  0  0  0  0  0  0  0  0  0
   -3.4255   -4.1154    1.6165 C   0  0  0  0  0  0  0  0  0  0  0  0
   -2.4256   -3.8699    0.9272 O   0  0  0  0  0  0  0  0  0  0  0  0
   -4.1592   -5.2152    1.3573 N   0  0  0  0  0  0  0  0  0  0  0  0
   -3.6088   -6.2940    0.5445 C   0  0  0  0  0  0  0  0  0  0  0  0
   -2.7228   -6.6202    0.9454 H   0  0  0  0  0  0  0  0  0  0  0  0
   -3.4867   -6.0484   -0.5105 H   0  0  0  0  0  0  0  0  0  0  0  0
   -4.4995   -7.5097    0.8157 C   0  0  0  0  0  0  0  0  0  0  0  0
   -4.6268   -8.0469   -0.0049 H   0  0  0  0  0  0  0  0  0  0  0  0
   -4.1373   -8.0589    1.5527 H   0  0  0  0  0  0  0  0  0  0  0  0
   -5.7952   -6.8483    1.2281 C   0  0  0  0  0  0  0  0  0  0  0  0
   -6.3388   -6.6076    0.4117 H   0  0  0  0  0  0  0  0  0  0  0  0
   -6.3456   -7.4812    1.7904 H   0  0  0  0  0  0  0  0  0  0  0  0
   -5.4430   -5.5973    2.0223 C   0  0  0  0  0  0  0  0  0  0  0  0
   -6.1162   -4.8923    1.8999 H   0  0  0  0  0  0  0  0  0  0  0  0
   -5.2895   -5.8041    2.9720 H   0  0  0  0  0  0  0  0  0  0  0  0
  1  5  1  0
  5  6  2  0
  6  8  1  0
  8 10  2  0
 10 12  1  0
 12  5  1  0
  1  2  1  0
  1  3  1  0
  1  4  1  0
  6  7  1  0
  8  9  1  0
 10 11  1  0
 12 13  1  0
 14 18  1  0
 18 19  2  0
 18 20  1  0
 20 21  1  0
 21 24  1  0
 24 27  1  0
 27 30  1  0
 30 20  1  0
 14 15  1  0
 14 16  1  0
 14 17  1  0
 21 22  1  0
 21 23  1  0
 24 25  1  0
 24 26  1  0
 27 28  1  0
 27 29  1  0
 30 31  1  0
 30 32  1  0
M  CHG  1   8   1
M  END
>  <PDB_ID>  (22) 
pdb1jkm

>  <RESIDUE_NAME>  (22) 
HIP   PRO

>  <FRAG_NAME>  (22) 
MIMM   N1PA

>  <FRAG_ATOM_NUM>  (22) 
fragi: 13  fragj: 19

>  <atom.prop.CHAIN_ID>  (22) 
A A A A A A A A A A A A A Z Z Z Z Z Z Z Z Z Z Z Z Z Z Z Z Z Z Z

>  <atom.prop.IS_HEAVY_ATOM>  (22) 
1 0 0 0 1 1 0 1 0 1 0 1 0 1 0 0 0 1 1 1 1 0 0 1 0 0 1 0 0 1 0 0

>  <DIFUSE_FUNC_ATOM>  (22) 
n/a

>  <FINAL_SINGLE_POINT_ENERGY>  (22) 
0

>  <NONCOV_INTER_ENERGY_QM>  (22) 
0

>  <FF_Energy>  (22) 
-8.3

>  <QM_Energy>  (22) 
-13.46

>  <Index>  (22) 
172

$$$$
MIMM-pdb1jji-A-HIP-285:N1PA-pdb1jji-A-PRO-189
     RDKit          3D

 32 32  0  0  0  0  0  0  0  0999 V2000
   -0.6643    2.7427   -0.0169 C   0  0  0  0  0  0  0  0  0  0  0  0
   -1.4539    2.8039   -0.6375 H   0  0  0  0  0  0  0  0  0  0  0  0
    0.0748    3.3179   -0.3837 H   0  0  0  0  0  0  0  0  0  0  0  0
   -0.9531    3.1193    0.9644 H   0  0  0  0  0  0  0  0  0  0  0  0
   -0.1876    1.3191   -0.0042 C   0  0  0  0  0  0  0  0  0  0  0  0
    1.0577    0.8015   -0.0000 C   0  0  0  0  0  0  0  0  0  0  0  0
    1.9152    1.3086    0.0034 H   0  0  0  0  0  0  0  0  0  0  0  0
    0.9264   -0.5713    0.0002 N   0  0  0  0  0  4  0  0  0  0  0  0
    1.6803   -1.2265   -0.0012 H   0  0  0  0  0  0  0  0  0  0  0  0
   -0.3595   -0.8726    0.0011 C   0  0  0  0  0  0  0  0  0  0  0  0
   -0.7388   -1.7964    0.0040 H   0  0  0  0  0  0  0  0  0  0  0  0
   -1.0577    0.2471    0.0000 N   0  0  0  0  0  0  0  0  0  0  0  0
   -2.0529    0.3135    0.0008 H   0  0  0  0  0  0  0  0  0  0  0  0
   -3.5481   -2.8652    2.6811 C   0  0  0  0  0  0  0  0  0  0  0  0
   -4.4853   -2.9285    2.3272 H   0  0  0  0  0  0  0  0  0  0  0  0
   -3.5555   -3.2065    3.7161 H   0  0  0  0  0  0  0  0  0  0  0  0
   -3.2697   -1.8165    2.5777 H   0  0  0  0  0  0  0  0  0  0  0  0
   -2.6485   -3.7572    1.8161 C   0  0  0  0  0  0  0  0  0  0  0  0
   -1.5502   -3.3617    1.3445 O   0  0  0  0  0  0  0  0  0  0  0  0
   -3.0509   -4.9897    1.6452 N   0  0  0  0  0  0  0  0  0  0  0  0
   -2.3265   -5.9696    0.8626 C   0  0  0  0  0  0  0  0  0  0  0  0
   -1.3371   -5.9621    1.1023 H   0  0  0  0  0  0  0  0  0  0  0  0
   -2.4616   -5.8357   -0.2106 H   0  0  0  0  0  0  0  0  0  0  0  0
   -2.9931   -7.2789    1.2446 C   0  0  0  0  0  0  0  0  0  0  0  0
   -2.8638   -7.9700    0.5530 H   0  0  0  0  0  0  0  0  0  0  0  0
   -2.7017   -7.5921    2.1327 H   0  0  0  0  0  0  0  0  0  0  0  0
   -4.4624   -6.8548    1.2933 C   0  0  0  0  0  0  0  0  0  0  0  0
   -4.7663   -6.5839    0.4182 H   0  0  0  0  0  0  0  0  0  0  0  0
   -4.9953   -7.5307    1.7287 H   0  0  0  0  0  0  0  0  0  0  0  0
   -4.2783   -5.6285    2.2113 C   0  0  0  0  0  0  0  0  0  0  0  0
   -5.0525   -5.0178    2.1422 H   0  0  0  0  0  0  0  0  0  0  0  0
   -4.1253   -5.9096    3.1480 H   0  0  0  0  0  0  0  0  0  0  0  0
  1  5  1  0
  5  6  2  0
  6  8  1  0
  8 10  2  0
 10 12  1  0
 12  5  1  0
  1  2  1  0
  1  3  1  0
  1  4  1  0
  6  7  1  0
  8  9  1  0
 10 11  1  0
 12 13  1  0
 14 18  1  0
 18 19  2  0
 18 20  1  0
 20 21  1  0
 21 24  1  0
 24 27  1  0
 27 30  1  0
 30 20  1  0
 14 15  1  0
 14 16  1  0
 14 17  1  0
 21 22  1  0
 21 23  1  0
 24 25  1  0
 24 26  1  0
 27 28  1  0
 27 29  1  0
 30 31  1  0
 30 32  1  0
M  CHG  1   8   1
M  END
>  <PDB_ID>  (23) 
pdb1jji

>  <RESIDUE_NAME>  (23) 
HIP   PRO

>  <FRAG_NAME>  (23) 
MIMM   N1PA

>  <FRAG_ATOM_NUM>  (23) 
fragi: 13  fragj: 19

>  <atom.prop.CHAIN_ID>  (23) 
A A A A A A A A A A A A A Z Z Z Z Z Z Z Z Z Z Z Z Z Z Z Z Z Z Z

>  <atom.prop.IS_HEAVY_ATOM>  (23) 
1 0 0 0 1 1 0 1 0 1 0 1 0 1 0 0 0 1 1 1 1 0 0 1 0 0 1 0 0 1 0 0

>  <DIFUSE_FUNC_ATOM>  (23) 
n/a

>  <FINAL_SINGLE_POINT_ENERGY>  (23) 
0

>  <NONCOV_INTER_ENERGY_QM>  (23) 
0

>  <FF_Energy>  (23) 
-8.92

>  <QM_Energy>  (23) 
-18.74

>  <Index>  (23) 
183

$$$$
MIMM-pdb1jji-C-HIP-285:N1PA-pdb1jji-C-PRO-189
     RDKit          3D

 32 32  0  0  0  0  0  0  0  0999 V2000
   -0.6829    2.7380   -0.0055 C   0  0  0  0  0  0  0  0  0  0  0  0
   -1.4622    2.8031   -0.6393 H   0  0  0  0  0  0  0  0  0  0  0  0
    0.0588    3.3226   -0.3544 H   0  0  0  0  0  0  0  0  0  0  0  0
   -0.9903    3.1012    0.9752 H   0  0  0  0  0  0  0  0  0  0  0  0
   -0.1997    1.3212   -0.0012 C   0  0  0  0  0  0  0  0  0  0  0  0
    1.0555    0.8036   -0.0000 C   0  0  0  0  0  0  0  0  0  0  0  0
    1.9071    1.3180    0.0016 H   0  0  0  0  0  0  0  0  0  0  0  0
    0.9290   -0.5654    0.0002 N   0  0  0  0  0  4  0  0  0  0  0  0
    1.6870   -1.2199   -0.0001 H   0  0  0  0  0  0  0  0  0  0  0  0
   -0.3561   -0.8794   -0.0001 C   0  0  0  0  0  0  0  0  0  0  0  0
   -0.7293   -1.8008    0.0011 H   0  0  0  0  0  0  0  0  0  0  0  0
   -1.0555    0.2414    0.0000 N   0  0  0  0  0  0  0  0  0  0  0  0
   -2.0552    0.2999    0.0002 H   0  0  0  0  0  0  0  0  0  0  0  0
   -3.8597   -2.7034    2.4679 C   0  0  0  0  0  0  0  0  0  0  0  0
   -4.7941   -2.6511    2.0900 H   0  0  0  0  0  0  0  0  0  0  0  0
   -3.9232   -3.0469    3.5004 H   0  0  0  0  0  0  0  0  0  0  0  0
   -3.4693   -1.6879    2.3999 H   0  0  0  0  0  0  0  0  0  0  0  0
   -3.0522   -3.6773    1.5829 C   0  0  0  0  0  0  0  0  0  0  0  0
   -2.0509   -3.3208    0.9964 O   0  0  0  0  0  0  0  0  0  0  0  0
   -3.4961   -4.9299    1.4957 N   0  0  0  0  0  0  0  0  0  0  0  0
   -2.7967   -5.9315    0.6796 C   0  0  0  0  0  0  0  0  0  0  0  0
   -1.8134   -6.0040    0.9822 H   0  0  0  0  0  0  0  0  0  0  0  0
   -2.8492   -5.7959   -0.4007 H   0  0  0  0  0  0  0  0  0  0  0  0
   -3.5151   -7.2310    1.0550 C   0  0  0  0  0  0  0  0  0  0  0  0
   -3.3978   -7.9152    0.3548 H   0  0  0  0  0  0  0  0  0  0  0  0
   -3.2214   -7.5567    1.9371 H   0  0  0  0  0  0  0  0  0  0  0  0
   -4.9450   -6.7547    1.1057 C   0  0  0  0  0  0  0  0  0  0  0  0
   -5.2588   -6.4745    0.2303 H   0  0  0  0  0  0  0  0  0  0  0  0
   -5.5187   -7.3989    1.5504 H   0  0  0  0  0  0  0  0  0  0  0  0
   -4.7500   -5.4986    2.0244 C   0  0  0  0  0  0  0  0  0  0  0  0
   -5.5076   -4.8770    1.9094 H   0  0  0  0  0  0  0  0  0  0  0  0
   -4.6522   -5.7817    2.9652 H   0  0  0  0  0  0  0  0  0  0  0  0
  1  5  1  0
  5  6  2  0
  6  8  1  0
  8 10  2  0
 10 12  1  0
 12  5  1  0
  1  2  1  0
  1  3  1  0
  1  4  1  0
  6  7  1  0
  8  9  1  0
 10 11  1  0
 12 13  1  0
 14 18  1  0
 18 19  2  0
 18 20  1  0
 20 21  1  0
 21 24  1  0
 24 27  1  0
 27 30  1  0
 30 20  1  0
 14 15  1  0
 14 16  1  0
 14 17  1  0
 21 22  1  0
 21 23  1  0
 24 25  1  0
 24 26  1  0
 27 28  1  0
 27 29  1  0
 30 31  1  0
 30 32  1  0
M  CHG  1   8   1
M  END
>  <PDB_ID>  (24) 
pdb1jji

>  <RESIDUE_NAME>  (24) 
HIP   PRO

>  <FRAG_NAME>  (24) 
MIMM   N1PA

>  <FRAG_ATOM_NUM>  (24) 
fragi: 13  fragj: 19

>  <atom.prop.CHAIN_ID>  (24) 
A A A A A A A A A A A A A Z Z Z Z Z Z Z Z Z Z Z Z Z Z Z Z Z Z Z

>  <atom.prop.IS_HEAVY_ATOM>  (24) 
1 0 0 0 1 1 0 1 0 1 0 1 0 1 0 0 0 1 1 1 1 0 0 1 0 0 1 0 0 1 0 0

>  <DIFUSE_FUNC_ATOM>  (24) 
n/a

>  <FINAL_SINGLE_POINT_ENERGY>  (24) 
0

>  <NONCOV_INTER_ENERGY_QM>  (24) 
0

>  <FF_Energy>  (24) 
-9.31

>  <QM_Energy>  (24) 
-17.73

>  <Index>  (24) 
185

$$$$
MIMM-pdb2pmb-B-HIP-369:N1PA-pdb2pmb-B-PRO-415
     RDKit          3D

 32 32  0  0  0  0  0  0  0  0999 V2000
   -0.6759    2.7323    0.0233 C   0  0  0  0  0  0  0  0  0  0  0  0
   -1.5579    2.7632   -0.4704 H   0  0  0  0  0  0  0  0  0  0  0  0
   -0.0110    3.2857   -0.5005 H   0  0  0  0  0  0  0  0  0  0  0  0
   -0.8026    3.1664    1.0150 H   0  0  0  0  0  0  0  0  0  0  0  0
   -0.1966    1.3152    0.0247 C   0  0  0  0  0  0  0  0  0  0  0  0
    1.0490    0.8015    0.0000 C   0  0  0  0  0  0  0  0  0  0  0  0
    1.9047    1.3163   -0.0059 H   0  0  0  0  0  0  0  0  0  0  0  0
    0.9236   -0.5615   -0.0138 N   0  0  0  0  0  4  0  0  0  0  0  0
    1.6865   -1.2153   -0.0264 H   0  0  0  0  0  0  0  0  0  0  0  0
   -0.3504   -0.8741   -0.0093 C   0  0  0  0  0  0  0  0  0  0  0  0
   -0.7270   -1.7975   -0.0109 H   0  0  0  0  0  0  0  0  0  0  0  0
   -1.0490    0.2424   -0.0000 N   0  0  0  0  0  0  0  0  0  0  0  0
   -2.0504    0.3000   -0.0100 H   0  0  0  0  0  0  0  0  0  0  0  0
    3.4318   -3.4338   -2.0509 C   0  0  0  0  0  0  0  0  0  0  0  0
    3.7746   -4.3801   -1.8921 H   0  0  0  0  0  0  0  0  0  0  0  0
    4.0634   -3.0075   -2.7258 H   0  0  0  0  0  0  0  0  0  0  0  0
    2.4329   -3.4863   -2.4839 H   0  0  0  0  0  0  0  0  0  0  0  0
    3.4971   -2.6533   -0.7439 C   0  0  0  0  0  0  0  0  0  0  0  0
    2.4626   -2.1844   -0.2477 O   0  0  0  0  0  0  0  0  0  0  0  0
    4.7205   -2.4983   -0.1827 N   0  0  0  0  0  0  0  0  0  0  0  0
    4.9676   -1.8951    1.1360 C   0  0  0  0  0  0  0  0  0  0  0  0
    4.5939   -2.4955    1.8740 H   0  0  0  0  0  0  0  0  0  0  0  0
    4.5919   -0.8782    1.2500 H   0  0  0  0  0  0  0  0  0  0  0  0
    6.5002   -1.9083    1.2570 C   0  0  0  0  0  0  0  0  0  0  0  0
    6.8293   -1.0439    1.6508 H   0  0  0  0  0  0  0  0  0  0  0  0
    6.8004   -2.6642    1.8463 H   0  0  0  0  0  0  0  0  0  0  0  0
    7.0064   -2.0852   -0.1417 C   0  0  0  0  0  0  0  0  0  0  0  0
    7.1054   -1.1919   -0.5916 H   0  0  0  0  0  0  0  0  0  0  0  0
    7.9024   -2.5409   -0.1321 H   0  0  0  0  0  0  0  0  0  0  0  0
    5.9785   -2.9244   -0.8239 C   0  0  0  0  0  0  0  0  0  0  0  0
    5.9450   -2.7454   -1.8073 H   0  0  0  0  0  0  0  0  0  0  0  0
    6.1338   -3.9020   -0.6699 H   0  0  0  0  0  0  0  0  0  0  0  0
  1  5  1  0
  5  6  2  0
  6  8  1  0
  8 10  2  0
 10 12  1  0
 12  5  1  0
  1  2  1  0
  1  3  1  0
  1  4  1  0
  6  7  1  0
  8  9  1  0
 10 11  1  0
 12 13  1  0
 14 18  1  0
 18 19  2  0
 18 20  1  0
 20 21  1  0
 21 24  1  0
 24 27  1  0
 27 30  1  0
 30 20  1  0
 14 15  1  0
 14 16  1  0
 14 17  1  0
 21 22  1  0
 21 23  1  0
 24 25  1  0
 24 26  1  0
 27 28  1  0
 27 29  1  0
 30 31  1  0
 30 32  1  0
M  CHG  1   8   1
M  END
>  <PDB_ID>  (25) 
pdb2pmb

>  <RESIDUE_NAME>  (25) 
HIP   PRO

>  <FRAG_NAME>  (25) 
MIMM   N1PA

>  <FRAG_ATOM_NUM>  (25) 
fragi: 13  fragj: 19

>  <atom.prop.CHAIN_ID>  (25) 
A A A A A A A A A A A A A Z Z Z Z Z Z Z Z Z Z Z Z Z Z Z Z Z Z Z

>  <atom.prop.IS_HEAVY_ATOM>  (25) 
1 0 0 0 1 1 0 1 0 1 0 1 0 1 0 0 0 1 1 1 1 0 0 1 0 0 1 0 0 1 0 0

>  <DIFUSE_FUNC_ATOM>  (25) 
n/a

>  <FINAL_SINGLE_POINT_ENERGY>  (25) 
0

>  <NONCOV_INTER_ENERGY_QM>  (25) 
0

>  <FF_Energy>  (25) 
0.62

>  <QM_Energy>  (25) 
-15.29

>  <Index>  (25) 
197

$$$$
MIMM-pdb2pmb-D-HIP-369:N1PA-pdb2pmb-D-PRO-415
     RDKit          3D

 32 32  0  0  0  0  0  0  0  0999 V2000
   -0.6815    2.7120   -0.0384 C   0  0  0  0  0  0  0  0  0  0  0  0
   -1.4955    2.7601   -0.6268 H   0  0  0  0  0  0  0  0  0  0  0  0
    0.0359    3.2925   -0.4373 H   0  0  0  0  0  0  0  0  0  0  0  0
   -0.9277    3.0652    0.9631 H   0  0  0  0  0  0  0  0  0  0  0  0
   -0.1943    1.3108   -0.0372 C   0  0  0  0  0  0  0  0  0  0  0  0
    1.0486    0.8013    0.0000 C   0  0  0  0  0  0  0  0  0  0  0  0
    1.9044    1.3161    0.0114 H   0  0  0  0  0  0  0  0  0  0  0  0
    0.9227   -0.5595    0.0205 N   0  0  0  0  0  4  0  0  0  0  0  0
    1.6846   -1.2152    0.0370 H   0  0  0  0  0  0  0  0  0  0  0  0
   -0.3526   -0.8723    0.0127 C   0  0  0  0  0  0  0  0  0  0  0  0
   -0.7284   -1.7959    0.0167 H   0  0  0  0  0  0  0  0  0  0  0  0
   -1.0486    0.2433   -0.0000 N   0  0  0  0  0  0  0  0  0  0  0  0
   -2.0503    0.3020    0.0145 H   0  0  0  0  0  0  0  0  0  0  0  0
    3.1558   -3.6940   -1.9920 C   0  0  0  0  0  0  0  0  0  0  0  0
    3.3954   -4.6810   -1.9741 H   0  0  0  0  0  0  0  0  0  0  0  0
    3.9188   -3.2132   -2.4600 H   0  0  0  0  0  0  0  0  0  0  0  0
    2.2432   -3.5608   -2.5729 H   0  0  0  0  0  0  0  0  0  0  0  0
    3.0416   -3.1802   -0.5613 C   0  0  0  0  0  0  0  0  0  0  0  0
    1.9847   -2.6762   -0.1697 O   0  0  0  0  0  0  0  0  0  0  0  0
    4.1273   -3.3183    0.2325 N   0  0  0  0  0  0  0  0  0  0  0  0
    4.1898   -2.8737    1.6361 C   0  0  0  0  0  0  0  0  0  0  0  0
    3.6140   -3.4927    2.2251 H   0  0  0  0  0  0  0  0  0  0  0  0
    3.9337   -1.8316    1.8270 H   0  0  0  0  0  0  0  0  0  0  0  0
    5.6444   -3.1659    2.0522 C   0  0  0  0  0  0  0  0  0  0  0  0
    6.0380   -2.3610    2.5209 H   0  0  0  0  0  0  0  0  0  0  0  0
    5.6705   -3.9419    2.6991 H   0  0  0  0  0  0  0  0  0  0  0  0
    6.3746   -3.4758    0.8072 C   0  0  0  0  0  0  0  0  0  0  0  0
    6.8440   -2.6474    0.4519 H   0  0  0  0  0  0  0  0  0  0  0  0
    7.0945   -4.1720    0.9786 H   0  0  0  0  0  0  0  0  0  0  0  0
    5.3755   -3.9818   -0.1819 C   0  0  0  0  0  0  0  0  0  0  0  0
    5.6156   -3.7209   -1.1175 H   0  0  0  0  0  0  0  0  0  0  0  0
    5.2747   -4.9777   -0.1324 H   0  0  0  0  0  0  0  0  0  0  0  0
  1  5  1  0
  5  6  2  0
  6  8  1  0
  8 10  2  0
 10 12  1  0
 12  5  1  0
  1  2  1  0
  1  3  1  0
  1  4  1  0
  6  7  1  0
  8  9  1  0
 10 11  1  0
 12 13  1  0
 14 18  1  0
 18 19  2  0
 18 20  1  0
 20 21  1  0
 21 24  1  0
 24 27  1  0
 27 30  1  0
 30 20  1  0
 14 15  1  0
 14 16  1  0
 14 17  1  0
 21 22  1  0
 21 23  1  0
 24 25  1  0
 24 26  1  0
 27 28  1  0
 27 29  1  0
 30 31  1  0
 30 32  1  0
M  CHG  1   8   1
M  END
>  <PDB_ID>  (26) 
pdb2pmb

>  <RESIDUE_NAME>  (26) 
HIP   PRO

>  <FRAG_NAME>  (26) 
MIMM   N1PA

>  <FRAG_ATOM_NUM>  (26) 
fragi: 13  fragj: 19

>  <atom.prop.CHAIN_ID>  (26) 
A A A A A A A A A A A A A Z Z Z Z Z Z Z Z Z Z Z Z Z Z Z Z Z Z Z

>  <atom.prop.IS_HEAVY_ATOM>  (26) 
1 0 0 0 1 1 0 1 0 1 0 1 0 1 0 0 0 1 1 1 1 0 0 1 0 0 1 0 0 1 0 0

>  <DIFUSE_FUNC_ATOM>  (26) 
n/a

>  <FINAL_SINGLE_POINT_ENERGY>  (26) 
0

>  <NONCOV_INTER_ENERGY_QM>  (26) 
0

>  <FF_Energy>  (26) 
-7.75

>  <QM_Energy>  (26) 
-21.77

>  <Index>  (26) 
198

$$$$
MIMM-pdb1mve-A-HIP-99:N1PA-pdb1mve-A-PRO-92
     RDKit          3D

 32 32  0  0  0  0  0  0  0  0999 V2000
   -0.6597    2.7340    0.1884 C   0  0  0  0  0  0  0  0  0  0  0  0
    0.1192    3.2828    0.5270 H   0  0  0  0  0  0  0  0  0  0  0  0
   -1.3763    2.7467    0.9017 H   0  0  0  0  0  0  0  0  0  0  0  0
   -1.0528    3.1939   -0.7183 H   0  0  0  0  0  0  0  0  0  0  0  0
   -0.1946    1.3204    0.0238 C   0  0  0  0  0  0  0  0  0  0  0  0
    1.0543    0.8010   -0.0000 C   0  0  0  0  0  0  0  0  0  0  0  0
    1.9091    1.3131   -0.0097 H   0  0  0  0  0  0  0  0  0  0  0  0
    0.9266   -0.5666   -0.0075 N   0  0  0  0  0  4  0  0  0  0  0  0
    1.6853   -1.2219   -0.0116 H   0  0  0  0  0  0  0  0  0  0  0  0
   -0.3561   -0.8782   -0.0097 C   0  0  0  0  0  0  0  0  0  0  0  0
   -0.7320   -1.7989   -0.0163 H   0  0  0  0  0  0  0  0  0  0  0  0
   -1.0543    0.2440    0.0000 N   0  0  0  0  0  0  0  0  0  0  0  0
   -2.0534    0.3050   -0.0090 H   0  0  0  0  0  0  0  0  0  0  0  0
    1.5084   -4.6869    1.5896 C   0  0  0  0  0  0  0  0  0  0  0  0
    2.5076   -4.6856    1.4408 H   0  0  0  0  0  0  0  0  0  0  0  0
    1.2915   -4.0059    2.4125 H   0  0  0  0  0  0  0  0  0  0  0  0
    1.1492   -5.6890    1.8240 H   0  0  0  0  0  0  0  0  0  0  0  0
    0.8410   -4.2425    0.2971 C   0  0  0  0  0  0  0  0  0  0  0  0
   -0.3633   -4.0026    0.2820 O   0  0  0  0  0  0  0  0  0  0  0  0
    1.6078   -4.0995   -0.7934 N   0  0  0  0  0  0  0  0  0  0  0  0
    3.0533   -4.3415   -0.8745 C   0  0  0  0  0  0  0  0  0  0  0  0
    3.2825   -5.2536   -0.5291 H   0  0  0  0  0  0  0  0  0  0  0  0
    3.5900   -3.5700   -0.3224 H   0  0  0  0  0  0  0  0  0  0  0  0
    3.3316   -4.3149   -2.3677 C   0  0  0  0  0  0  0  0  0  0  0  0
    4.2271   -3.9002   -2.5552 H   0  0  0  0  0  0  0  0  0  0  0  0
    3.3193   -5.2437   -2.7494 H   0  0  0  0  0  0  0  0  0  0  0  0
    2.2340   -3.4928   -2.9239 C   0  0  0  0  0  0  0  0  0  0  0  0
    2.4362   -2.5121   -2.8228 H   0  0  0  0  0  0  0  0  0  0  0  0
    2.1012   -3.6914   -3.9015 H   0  0  0  0  0  0  0  0  0  0  0  0
    1.0302   -3.8751   -2.1319 C   0  0  0  0  0  0  0  0  0  0  0  0
    0.3570   -3.1428   -2.1014 H   0  0  0  0  0  0  0  0  0  0  0  0
    0.6095   -4.7118   -2.4730 H   0  0  0  0  0  0  0  0  0  0  0  0
  1  5  1  0
  5  6  2  0
  6  8  1  0
  8 10  2  0
 10 12  1  0
 12  5  1  0
  1  2  1  0
  1  3  1  0
  1  4  1  0
  6  7  1  0
  8  9  1  0
 10 11  1  0
 12 13  1  0
 14 18  1  0
 18 19  2  0
 18 20  1  0
 20 21  1  0
 21 24  1  0
 24 27  1  0
 27 30  1  0
 30 20  1  0
 14 15  1  0
 14 16  1  0
 14 17  1  0
 21 22  1  0
 21 23  1  0
 24 25  1  0
 24 26  1  0
 27 28  1  0
 27 29  1  0
 30 31  1  0
 30 32  1  0
M  CHG  1   8   1
M  END
>  <PDB_ID>  (27) 
pdb1mve

>  <RESIDUE_NAME>  (27) 
HIP   PRO

>  <FRAG_NAME>  (27) 
MIMM   N1PA

>  <FRAG_ATOM_NUM>  (27) 
fragi: 13  fragj: 19

>  <atom.prop.CHAIN_ID>  (27) 
A A A A A A A A A A A A A Z Z Z Z Z Z Z Z Z Z Z Z Z Z Z Z Z Z Z

>  <atom.prop.IS_HEAVY_ATOM>  (27) 
1 0 0 0 1 1 0 1 0 1 0 1 0 1 0 0 0 1 1 1 1 0 0 1 0 0 1 0 0 1 0 0

>  <DIFUSE_FUNC_ATOM>  (27) 
n/a

>  <FINAL_SINGLE_POINT_ENERGY>  (27) 
0

>  <NONCOV_INTER_ENERGY_QM>  (27) 
0

>  <FF_Energy>  (27) 
-5.88

>  <QM_Energy>  (27) 
-14.06

>  <Index>  (27) 
210

$$$$
MIMM-pdb1mpx-D-HIP-340:N1PA-pdb1mpx-D-PRO-199
     RDKit          3D

 32 32  0  0  0  0  0  0  0  0999 V2000
   -0.6577    2.7292   -0.0058 C   0  0  0  0  0  0  0  0  0  0  0  0
   -1.3040    2.8459   -0.7728 H   0  0  0  0  0  0  0  0  0  0  0  0
    0.1385    3.3269   -0.1781 H   0  0  0  0  0  0  0  0  0  0  0  0
   -1.1423    3.0382    0.9204 H   0  0  0  0  0  0  0  0  0  0  0  0
   -0.1902    1.3203    0.0007 C   0  0  0  0  0  0  0  0  0  0  0  0
    1.0578    0.7985    0.0000 C   0  0  0  0  0  0  0  0  0  0  0  0
    1.9144    1.3094    0.0018 H   0  0  0  0  0  0  0  0  0  0  0  0
    0.9259   -0.5667   -0.0020 N   0  0  0  0  0  4  0  0  0  0  0  0
    1.6807   -1.2255   -0.0048 H   0  0  0  0  0  0  0  0  0  0  0  0
   -0.3597   -0.8749   -0.0005 C   0  0  0  0  0  0  0  0  0  0  0  0
   -0.7357   -1.7975    0.0013 H   0  0  0  0  0  0  0  0  0  0  0  0
   -1.0578    0.2454   -0.0000 N   0  0  0  0  0  0  0  0  0  0  0  0
   -2.0538    0.3107   -0.0011 H   0  0  0  0  0  0  0  0  0  0  0  0
   -3.9010   -3.0886    2.3520 C   0  0  0  0  0  0  0  0  0  0  0  0
   -4.8226   -2.9715    1.9579 H   0  0  0  0  0  0  0  0  0  0  0  0
   -4.0102   -3.2899    3.4178 H   0  0  0  0  0  0  0  0  0  0  0  0
   -3.3385   -2.1669    2.2039 H   0  0  0  0  0  0  0  0  0  0  0  0
   -3.2221   -4.2536    1.6013 C   0  0  0  0  0  0  0  0  0  0  0  0
   -2.2502   -4.0450    0.8875 O   0  0  0  0  0  0  0  0  0  0  0  0
   -3.7535   -5.4767    1.7476 N   0  0  0  0  0  0  0  0  0  0  0  0
   -3.1404   -6.6428    1.1226 C   0  0  0  0  0  0  0  0  0  0  0  0
   -2.1568   -6.7131    1.3995 H   0  0  0  0  0  0  0  0  0  0  0  0
   -3.2430   -6.6690    0.0377 H   0  0  0  0  0  0  0  0  0  0  0  0
   -3.9142   -7.8150    1.7434 C   0  0  0  0  0  0  0  0  0  0  0  0
   -3.9718   -8.5766    1.0930 H   0  0  0  0  0  0  0  0  0  0  0  0
   -3.4567   -8.1312    2.5769 H   0  0  0  0  0  0  0  0  0  0  0  0
   -5.2480   -7.2520    2.0368 C   0  0  0  0  0  0  0  0  0  0  0  0
   -5.8302   -7.2571    1.2167 H   0  0  0  0  0  0  0  0  0  0  0  0
   -5.7086   -7.7758    2.7611 H   0  0  0  0  0  0  0  0  0  0  0  0
   -4.9831   -5.8410    2.4892 C   0  0  0  0  0  0  0  0  0  0  0  0
   -5.7314   -5.2287    2.2420 H   0  0  0  0  0  0  0  0  0  0  0  0
   -4.8217   -5.7947    3.4739 H   0  0  0  0  0  0  0  0  0  0  0  0
  1  5  1  0
  5  6  2  0
  6  8  1  0
  8 10  2  0
 10 12  1  0
 12  5  1  0
  1  2  1  0
  1  3  1  0
  1  4  1  0
  6  7  1  0
  8  9  1  0
 10 11  1  0
 12 13  1  0
 14 18  1  0
 18 19  2  0
 18 20  1  0
 20 21  1  0
 21 24  1  0
 24 27  1  0
 27 30  1  0
 30 20  1  0
 14 15  1  0
 14 16  1  0
 14 17  1  0
 21 22  1  0
 21 23  1  0
 24 25  1  0
 24 26  1  0
 27 28  1  0
 27 29  1  0
 30 31  1  0
 30 32  1  0
M  CHG  1   8   1
M  END
>  <PDB_ID>  (28) 
pdb1mpx

>  <RESIDUE_NAME>  (28) 
HIP   PRO

>  <FRAG_NAME>  (28) 
MIMM   N1PA

>  <FRAG_ATOM_NUM>  (28) 
fragi: 13  fragj: 19

>  <atom.prop.CHAIN_ID>  (28) 
A A A A A A A A A A A A A Z Z Z Z Z Z Z Z Z Z Z Z Z Z Z Z Z Z Z

>  <atom.prop.IS_HEAVY_ATOM>  (28) 
1 0 0 0 1 1 0 1 0 1 0 1 0 1 0 0 0 1 1 1 1 0 0 1 0 0 1 0 0 1 0 0

>  <DIFUSE_FUNC_ATOM>  (28) 
n/a

>  <FINAL_SINGLE_POINT_ENERGY>  (28) 
0

>  <NONCOV_INTER_ENERGY_QM>  (28) 
0

>  <FF_Energy>  (28) 
-7.75

>  <QM_Energy>  (28) 
-12.79

>  <Index>  (28) 
218

$$$$
MIMM-pdb2r11-D-HIP-274:N1PA-pdb2r11-D-PRO-155
     RDKit          3D

 32 32  0  0  0  0  0  0  0  0999 V2000
   -0.6784    2.7458    0.0046 C   0  0  0  0  0  0  0  0  0  0  0  0
   -1.2947    2.8651   -0.7813 H   0  0  0  0  0  0  0  0  0  0  0  0
    0.1189    3.3473   -0.1211 H   0  0  0  0  0  0  0  0  0  0  0  0
   -1.2029    3.0384    0.9143 H   0  0  0  0  0  0  0  0  0  0  0  0
   -0.1948    1.3223    0.0090 C   0  0  0  0  0  0  0  0  0  0  0  0
    1.0593    0.7999   -0.0000 C   0  0  0  0  0  0  0  0  0  0  0  0
    1.9126    1.3115    0.0031 H   0  0  0  0  0  0  0  0  0  0  0  0
    0.9293   -0.5701   -0.0122 N   0  0  0  0  0  4  0  0  0  0  0  0
    1.6849   -1.2256   -0.0271 H   0  0  0  0  0  0  0  0  0  0  0  0
   -0.3565   -0.8764   -0.0026 C   0  0  0  0  0  0  0  0  0  0  0  0
   -0.7345   -1.7984    0.0031 H   0  0  0  0  0  0  0  0  0  0  0  0
   -1.0593    0.2463   -0.0000 N   0  0  0  0  0  0  0  0  0  0  0  0
   -2.0549    0.3065   -0.0044 H   0  0  0  0  0  0  0  0  0  0  0  0
   -2.9793   -1.7210    3.7955 C   0  0  0  0  0  0  0  0  0  0  0  0
   -3.9248   -1.6934    3.4299 H   0  0  0  0  0  0  0  0  0  0  0  0
   -3.0553   -1.7881    4.8809 H   0  0  0  0  0  0  0  0  0  0  0  0
   -2.4395   -0.8154    3.5186 H   0  0  0  0  0  0  0  0  0  0  0  0
   -2.2581   -2.9034    3.1571 C   0  0  0  0  0  0  0  0  0  0  0  0
   -1.2778   -2.7105    2.4608 O   0  0  0  0  0  0  0  0  0  0  0  0
   -2.7524   -4.1296    3.3603 N   0  0  0  0  0  0  0  0  0  0  0  0
   -1.9875   -5.2922    2.9087 C   0  0  0  0  0  0  0  0  0  0  0  0
   -1.0572   -5.2948    3.3336 H   0  0  0  0  0  0  0  0  0  0  0  0
   -1.9031   -5.3895    1.8263 H   0  0  0  0  0  0  0  0  0  0  0  0
   -2.7877   -6.4623    3.4838 C   0  0  0  0  0  0  0  0  0  0  0  0
   -2.7250   -7.2602    2.8771 H   0  0  0  0  0  0  0  0  0  0  0  0
   -2.4363   -6.7157    4.3886 H   0  0  0  0  0  0  0  0  0  0  0  0
   -4.1677   -5.9507    3.5630 C   0  0  0  0  0  0  0  0  0  0  0  0
   -4.6299   -6.0288    2.6699 H   0  0  0  0  0  0  0  0  0  0  0  0
   -4.7034   -6.4725    4.2402 H   0  0  0  0  0  0  0  0  0  0  0  0
   -4.0310   -4.5294    3.9707 C   0  0  0  0  0  0  0  0  0  0  0  0
   -4.7769   -3.9637    3.6156 H   0  0  0  0  0  0  0  0  0  0  0  0
   -3.9879   -4.4273    4.9672 H   0  0  0  0  0  0  0  0  0  0  0  0
  1  5  1  0
  5  6  2  0
  6  8  1  0
  8 10  2  0
 10 12  1  0
 12  5  1  0
  1  2  1  0
  1  3  1  0
  1  4  1  0
  6  7  1  0
  8  9  1  0
 10 11  1  0
 12 13  1  0
 14 18  1  0
 18 19  2  0
 18 20  1  0
 20 21  1  0
 21 24  1  0
 24 27  1  0
 27 30  1  0
 30 20  1  0
 14 15  1  0
 14 16  1  0
 14 17  1  0
 21 22  1  0
 21 23  1  0
 24 25  1  0
 24 26  1  0
 27 28  1  0
 27 29  1  0
 30 31  1  0
 30 32  1  0
M  CHG  1   8   1
M  END
>  <PDB_ID>  (29) 
pdb2r11

>  <RESIDUE_NAME>  (29) 
HIP   PRO

>  <FRAG_NAME>  (29) 
MIMM   N1PA

>  <FRAG_ATOM_NUM>  (29) 
fragi: 13  fragj: 19

>  <atom.prop.CHAIN_ID>  (29) 
A A A A A A A A A A A A A Z Z Z Z Z Z Z Z Z Z Z Z Z Z Z Z Z Z Z

>  <atom.prop.IS_HEAVY_ATOM>  (29) 
1 0 0 0 1 1 0 1 0 1 0 1 0 1 0 0 0 1 1 1 1 0 0 1 0 0 1 0 0 1 0 0

>  <DIFUSE_FUNC_ATOM>  (29) 
n/a

>  <FINAL_SINGLE_POINT_ENERGY>  (29) 
0

>  <NONCOV_INTER_ENERGY_QM>  (29) 
0

>  <FF_Energy>  (29) 
-9.93

>  <QM_Energy>  (29) 
-15.0

>  <Index>  (29) 
228

$$$$
MIMM-pdb2rck-A-HIP-141:N1PA-pdb2rck-A-PRO-217
     RDKit          3D

 32 32  0  0  0  0  0  0  0  0999 V2000
   -0.6718    2.7398   -0.0116 C   0  0  0  0  0  0  0  0  0  0  0  0
   -0.0431    3.2905    0.5477 H   0  0  0  0  0  0  0  0  0  0  0  0
   -1.5847    2.7706    0.4105 H   0  0  0  0  0  0  0  0  0  0  0  0
   -0.7303    3.1752   -1.0091 H   0  0  0  0  0  0  0  0  0  0  0  0
   -0.1947    1.3202    0.0013 C   0  0  0  0  0  0  0  0  0  0  0  0
    1.0575    0.8010   -0.0000 C   0  0  0  0  0  0  0  0  0  0  0  0
    1.9108    1.3133    0.0001 H   0  0  0  0  0  0  0  0  0  0  0  0
    0.9273   -0.5658    0.0003 N   0  0  0  0  0  4  0  0  0  0  0  0
    1.6840   -1.2235    0.0001 H   0  0  0  0  0  0  0  0  0  0  0  0
   -0.3581   -0.8766   -0.0010 C   0  0  0  0  0  0  0  0  0  0  0  0
   -0.7326   -1.7991   -0.0016 H   0  0  0  0  0  0  0  0  0  0  0  0
   -1.0575    0.2437    0.0000 N   0  0  0  0  0  0  0  0  0  0  0  0
   -2.0552    0.3054   -0.0007 H   0  0  0  0  0  0  0  0  0  0  0  0
   -5.4577   -1.4333    0.4085 C   0  0  0  0  0  0  0  0  0  0  0  0
   -5.6488   -2.4056    0.2165 H   0  0  0  0  0  0  0  0  0  0  0  0
   -5.0371   -1.3364    1.4094 H   0  0  0  0  0  0  0  0  0  0  0  0
   -6.4320   -0.9447    0.4036 H   0  0  0  0  0  0  0  0  0  0  0  0
   -4.4736   -0.9317   -0.6941 C   0  0  0  0  0  0  0  0  0  0  0  0
   -3.5047   -0.2283   -0.3777 O   0  0  0  0  0  0  0  0  0  0  0  0
   -4.6789   -1.3440   -1.9763 N   0  0  0  0  0  0  0  0  0  0  0  0
   -3.7672   -1.0111   -3.1151 C   0  0  0  0  0  0  0  0  0  0  0  0
   -2.7981   -1.3514   -2.8881 H   0  0  0  0  0  0  0  0  0  0  0  0
   -3.6952   -0.0036   -3.5249 H   0  0  0  0  0  0  0  0  0  0  0  0
   -4.1784   -2.0143   -4.2143 C   0  0  0  0  0  0  0  0  0  0  0  0
   -4.2010   -1.5593   -5.1128 H   0  0  0  0  0  0  0  0  0  0  0  0
   -3.5179   -2.7733   -4.2611 H   0  0  0  0  0  0  0  0  0  0  0  0
   -5.5445   -2.5169   -3.8371 C   0  0  0  0  0  0  0  0  0  0  0  0
   -6.2531   -2.0717   -4.4195 H   0  0  0  0  0  0  0  0  0  0  0  0
   -5.6090   -3.5175   -4.0183 H   0  0  0  0  0  0  0  0  0  0  0  0
   -5.7955   -2.2241   -2.3799 C   0  0  0  0  0  0  0  0  0  0  0  0
   -6.6744   -1.7562   -2.2463 H   0  0  0  0  0  0  0  0  0  0  0  0
   -5.7925   -3.0667   -1.8304 H   0  0  0  0  0  0  0  0  0  0  0  0
  1  5  1  0
  5  6  2  0
  6  8  1  0
  8 10  2  0
 10 12  1  0
 12  5  1  0
  1  2  1  0
  1  3  1  0
  1  4  1  0
  6  7  1  0
  8  9  1  0
 10 11  1  0
 12 13  1  0
 14 18  1  0
 18 19  2  0
 18 20  1  0
 20 21  1  0
 21 24  1  0
 24 27  1  0
 27 30  1  0
 30 20  1  0
 14 15  1  0
 14 16  1  0
 14 17  1  0
 21 22  1  0
 21 23  1  0
 24 25  1  0
 24 26  1  0
 27 28  1  0
 27 29  1  0
 30 31  1  0
 30 32  1  0
M  CHG  1   8   1
M  END
>  <PDB_ID>  (30) 
pdb2rck

>  <RESIDUE_NAME>  (30) 
HIP   PRO

>  <FRAG_NAME>  (30) 
MIMM   N1PA

>  <FRAG_ATOM_NUM>  (30) 
fragi: 13  fragj: 19

>  <atom.prop.CHAIN_ID>  (30) 
A A A A A A A A A A A A A Z Z Z Z Z Z Z Z Z Z Z Z Z Z Z Z Z Z Z

>  <atom.prop.IS_HEAVY_ATOM>  (30) 
1 0 0 0 1 1 0 1 0 1 0 1 0 1 0 0 0 1 1 1 1 0 0 1 0 0 1 0 0 1 0 0

>  <DIFUSE_FUNC_ATOM>  (30) 
n/a

>  <FINAL_SINGLE_POINT_ENERGY>  (30) 
0

>  <NONCOV_INTER_ENERGY_QM>  (30) 
0

>  <FF_Energy>  (30) 
-16.43

>  <QM_Energy>  (30) 
-24.51

>  <Index>  (30) 
230

$$$$
MIMM-pdb2rfl-B-HIP-131:N1PA-pdb2rfl-B-PRO-135
     RDKit          3D

 32 32  0  0  0  0  0  0  0  0999 V2000
   -0.6753    2.7428    0.0254 C   0  0  0  0  0  0  0  0  0  0  0  0
    0.1170    3.3445   -0.1084 H   0  0  0  0  0  0  0  0  0  0  0  0
   -1.0757    2.9303    0.9263 H   0  0  0  0  0  0  0  0  0  0  0  0
   -1.4178    2.9555   -0.7439 H   0  0  0  0  0  0  0  0  0  0  0  0
   -0.1952    1.3207    0.0104 C   0  0  0  0  0  0  0  0  0  0  0  0
    1.0551    0.8014    0.0000 C   0  0  0  0  0  0  0  0  0  0  0  0
    1.9092    1.3135   -0.0006 H   0  0  0  0  0  0  0  0  0  0  0  0
    0.9275   -0.5670   -0.0080 N   0  0  0  0  0  4  0  0  0  0  0  0
    1.6851   -1.2220   -0.0170 H   0  0  0  0  0  0  0  0  0  0  0  0
   -0.3557   -0.8763   -0.0038 C   0  0  0  0  0  0  0  0  0  0  0  0
   -0.7323   -1.7987   -0.0024 H   0  0  0  0  0  0  0  0  0  0  0  0
   -1.0551    0.2436   -0.0000 N   0  0  0  0  0  0  0  0  0  0  0  0
   -2.0542    0.3040   -0.0047 H   0  0  0  0  0  0  0  0  0  0  0  0
   -5.7117    1.0401   -2.0161 C   0  0  0  0  0  0  0  0  0  0  0  0
   -6.7146    0.9941   -1.8411 H   0  0  0  0  0  0  0  0  0  0  0  0
   -5.4941    2.0121   -2.4587 H   0  0  0  0  0  0  0  0  0  0  0  0
   -5.5388    0.2388   -2.7345 H   0  0  0  0  0  0  0  0  0  0  0  0
   -4.9811    0.7494   -0.6910 C   0  0  0  0  0  0  0  0  0  0  0  0
   -3.8735    0.2289   -0.7015 O   0  0  0  0  0  0  0  0  0  0  0  0
   -5.6099    1.0760    0.4538 N   0  0  0  0  0  0  0  0  0  0  0  0
   -4.9671    1.0075    1.7807 C   0  0  0  0  0  0  0  0  0  0  0  0
   -4.1253    1.5879    1.7952 H   0  0  0  0  0  0  0  0  0  0  0  0
   -4.7340    0.0021    2.1314 H   0  0  0  0  0  0  0  0  0  0  0  0
   -5.9980    1.6754    2.7060 C   0  0  0  0  0  0  0  0  0  0  0  0
   -6.4522    0.9881    3.2836 H   0  0  0  0  0  0  0  0  0  0  0  0
   -5.5526    2.3501    3.3027 H   0  0  0  0  0  0  0  0  0  0  0  0
   -6.9932    2.3445    1.7944 C   0  0  0  0  0  0  0  0  0  0  0  0
   -7.9011    2.3625    2.2343 H   0  0  0  0  0  0  0  0  0  0  0  0
   -6.7098    3.2974    1.6223 H   0  0  0  0  0  0  0  0  0  0  0  0
   -7.0036    1.5440    0.5510 C   0  0  0  0  0  0  0  0  0  0  0  0
   -7.6273    0.7630    0.6094 H   0  0  0  0  0  0  0  0  0  0  0  0
   -7.2398    2.0945   -0.2519 H   0  0  0  0  0  0  0  0  0  0  0  0
  1  5  1  0
  5  6  2  0
  6  8  1  0
  8 10  2  0
 10 12  1  0
 12  5  1  0
  1  2  1  0
  1  3  1  0
  1  4  1  0
  6  7  1  0
  8  9  1  0
 10 11  1  0
 12 13  1  0
 14 18  1  0
 18 19  2  0
 18 20  1  0
 20 21  1  0
 21 24  1  0
 24 27  1  0
 27 30  1  0
 30 20  1  0
 14 15  1  0
 14 16  1  0
 14 17  1  0
 21 22  1  0
 21 23  1  0
 24 25  1  0
 24 26  1  0
 27 28  1  0
 27 29  1  0
 30 31  1  0
 30 32  1  0
M  CHG  1   8   1
M  END
>  <PDB_ID>  (31) 
pdb2rfl

>  <RESIDUE_NAME>  (31) 
HIP   PRO

>  <FRAG_NAME>  (31) 
MIMM   N1PA

>  <FRAG_ATOM_NUM>  (31) 
fragi: 13  fragj: 19

>  <atom.prop.CHAIN_ID>  (31) 
A A A A A A A A A A A A A Z Z Z Z Z Z Z Z Z Z Z Z Z Z Z Z Z Z Z

>  <atom.prop.IS_HEAVY_ATOM>  (31) 
1 0 0 0 1 1 0 1 0 1 0 1 0 1 0 0 0 1 1 1 1 0 0 1 0 0 1 0 0 1 0 0

>  <DIFUSE_FUNC_ATOM>  (31) 
n/a

>  <FINAL_SINGLE_POINT_ENERGY>  (31) 
0

>  <NONCOV_INTER_ENERGY_QM>  (31) 
0

>  <FF_Energy>  (31) 
-16.61

>  <QM_Energy>  (31) 
-24.23

>  <Index>  (31) 
236

$$$$
MIMM-pdb2vov-A-HIP-222:N1PA-pdb2vov-A-PRO-237
     RDKit          3D

 32 32  0  0  0  0  0  0  0  0999 V2000
   -0.6744    2.7385   -0.0226 C   0  0  0  0  0  0  0  0  0  0  0  0
   -0.8423    3.0251    0.9256 H   0  0  0  0  0  0  0  0  0  0  0  0
   -1.5419    2.7734   -0.5283 H   0  0  0  0  0  0  0  0  0  0  0  0
    0.0337    3.4278   -0.4825 H   0  0  0  0  0  0  0  0  0  0  0  0
   -0.1960    1.3203   -0.0082 C   0  0  0  0  0  0  0  0  0  0  0  0
    1.0561    0.8038    0.0000 C   0  0  0  0  0  0  0  0  0  0  0  0
    1.9092    1.3151    0.0023 H   0  0  0  0  0  0  0  0  0  0  0  0
    0.9267   -0.5658    0.0061 N   0  0  0  0  0  4  0  0  0  0  0  0
    1.6857   -1.2205    0.0117 H   0  0  0  0  0  0  0  0  0  0  0  0
   -0.3559   -0.8793    0.0022 C   0  0  0  0  0  0  0  0  0  0  0  0
   -0.7307   -1.8007    0.0021 H   0  0  0  0  0  0  0  0  0  0  0  0
   -1.0561    0.2424   -0.0000 N   0  0  0  0  0  0  0  0  0  0  0  0
   -2.0545    0.3018    0.0028 H   0  0  0  0  0  0  0  0  0  0  0  0
   -4.8997   -0.5476   -1.4039 C   0  0  0  0  0  0  0  0  0  0  0  0
   -5.5058   -0.1837   -2.1287 H   0  0  0  0  0  0  0  0  0  0  0  0
   -3.9544   -0.8486   -1.8556 H   0  0  0  0  0  0  0  0  0  0  0  0
   -5.3896   -1.4246   -0.9807 H   0  0  0  0  0  0  0  0  0  0  0  0
   -4.7158    0.5319   -0.3374 C   0  0  0  0  0  0  0  0  0  0  0  0
   -3.6849    0.5978    0.3216 O   0  0  0  0  0  0  0  0  0  0  0  0
   -5.7251    1.3917   -0.1568 N   0  0  0  0  0  0  0  0  0  0  0  0
   -5.5981    2.4562    0.8397 C   0  0  0  0  0  0  0  0  0  0  0  0
   -4.7626    3.0118    0.6652 H   0  0  0  0  0  0  0  0  0  0  0  0
   -5.6031    2.0978    1.8691 H   0  0  0  0  0  0  0  0  0  0  0  0
   -6.8275    3.3439    0.5607 C   0  0  0  0  0  0  0  0  0  0  0  0
   -7.1704    3.7380    1.4148 H   0  0  0  0  0  0  0  0  0  0  0  0
   -6.5858    4.0812   -0.0701 H   0  0  0  0  0  0  0  0  0  0  0  0
   -7.8101    2.4133   -0.0417 C   0  0  0  0  0  0  0  0  0  0  0  0
   -8.3290    1.9273    0.6762 H   0  0  0  0  0  0  0  0  0  0  0  0
   -8.4728    2.9166   -0.6154 H   0  0  0  0  0  0  0  0  0  0  0  0
   -7.0179    1.4469   -0.8696 C   0  0  0  0  0  0  0  0  0  0  0  0
   -7.4422    0.5437   -0.8905 H   0  0  0  0  0  0  0  0  0  0  0  0
   -6.8879    1.7791   -1.8023 H   0  0  0  0  0  0  0  0  0  0  0  0
  1  5  1  0
  5  6  2  0
  6  8  1  0
  8 10  2  0
 10 12  1  0
 12  5  1  0
  1  2  1  0
  1  3  1  0
  1  4  1  0
  6  7  1  0
  8  9  1  0
 10 11  1  0
 12 13  1  0
 14 18  1  0
 18 19  2  0
 18 20  1  0
 20 21  1  0
 21 24  1  0
 24 27  1  0
 27 30  1  0
 30 20  1  0
 14 15  1  0
 14 16  1  0
 14 17  1  0
 21 22  1  0
 21 23  1  0
 24 25  1  0
 24 26  1  0
 27 28  1  0
 27 29  1  0
 30 31  1  0
 30 32  1  0
M  CHG  1   8   1
M  END
>  <PDB_ID>  (32) 
pdb2vov

>  <RESIDUE_NAME>  (32) 
HIP   PRO

>  <FRAG_NAME>  (32) 
MIMM   N1PA

>  <FRAG_ATOM_NUM>  (32) 
fragi: 13  fragj: 19

>  <atom.prop.CHAIN_ID>  (32) 
A A A A A A A A A A A A A Z Z Z Z Z Z Z Z Z Z Z Z Z Z Z Z Z Z Z

>  <atom.prop.IS_HEAVY_ATOM>  (32) 
1 0 0 0 1 1 0 1 0 1 0 1 0 1 0 0 0 1 1 1 1 0 0 1 0 0 1 0 0 1 0 0

>  <DIFUSE_FUNC_ATOM>  (32) 
n/a

>  <FINAL_SINGLE_POINT_ENERGY>  (32) 
0

>  <NONCOV_INTER_ENERGY_QM>  (32) 
0

>  <FF_Energy>  (32) 
-17.24

>  <QM_Energy>  (32) 
-27.18

>  <Index>  (32) 
248

$$$$
MIMM-pdb1rju-V-HIP-1:N1PA-pdb1rju-V-PRO-23
     RDKit          3D

 32 32  0  0  0  0  0  0  0  0999 V2000
   -0.7357    2.7157    0.1033 C   0  0  0  0  0  0  0  0  0  0  0  0
   -1.5501    2.7639   -0.4967 H   0  0  0  0  0  0  0  0  0  0  0  0
   -0.0333    3.3320   -0.2871 H   0  0  0  0  0  0  0  0  0  0  0  0
   -1.0056    3.0714    1.0977 H   0  0  0  0  0  0  0  0  0  0  0  0
   -0.2081    1.3248    0.0619 C   0  0  0  0  0  0  0  0  0  0  0  0
    1.0595    0.8183   -0.0000 C   0  0  0  0  0  0  0  0  0  0  0  0
    1.9041    1.3252    0.0059 H   0  0  0  0  0  0  0  0  0  0  0  0
    0.9347   -0.5764   -0.0730 N   0  0  0  0  0  4  0  0  0  0  0  0
    1.6930   -1.2118   -0.1547 H   0  0  0  0  0  0  0  0  0  0  0  0
   -0.3482   -0.8849   -0.0164 C   0  0  0  0  0  0  0  0  0  0  0  0
   -0.7267   -1.8069    0.0111 H   0  0  0  0  0  0  0  0  0  0  0  0
   -1.0595    0.2403    0.0000 N   0  0  0  0  0  0  0  0  0  0  0  0
   -2.0569    0.2904   -0.0294 H   0  0  0  0  0  0  0  0  0  0  0  0
    3.1796   -3.9119    1.4064 C   0  0  0  0  0  0  0  0  0  0  0  0
    4.0595   -4.3289    1.6322 H   0  0  0  0  0  0  0  0  0  0  0  0
    3.0595   -2.9989    1.9896 H   0  0  0  0  0  0  0  0  0  0  0  0
    2.3573   -4.6035    1.5899 H   0  0  0  0  0  0  0  0  0  0  0  0
    3.2051   -3.5694   -0.1068 C   0  0  0  0  0  0  0  0  0  0  0  0
    2.5900   -2.6087   -0.5285 O   0  0  0  0  0  0  0  0  0  0  0  0
    3.8325   -4.4044   -0.9063 N   0  0  0  0  0  0  0  0  0  0  0  0
    3.6328   -4.2863   -2.3377 C   0  0  0  0  0  0  0  0  0  0  0  0
    3.9106   -3.3881   -2.6687 H   0  0  0  0  0  0  0  0  0  0  0  0
    2.5797   -4.4759   -2.5454 H   0  0  0  0  0  0  0  0  0  0  0  0
    4.4656   -5.4180   -2.9105 C   0  0  0  0  0  0  0  0  0  0  0  0
    4.0252   -5.7918   -3.7360 H   0  0  0  0  0  0  0  0  0  0  0  0
    5.3804   -5.0833   -3.1666 H   0  0  0  0  0  0  0  0  0  0  0  0
    4.5176   -6.3820   -1.8379 C   0  0  0  0  0  0  0  0  0  0  0  0
    3.7117   -7.0251   -1.8848 H   0  0  0  0  0  0  0  0  0  0  0  0
    5.3430   -6.9933   -1.9368 H   0  0  0  0  0  0  0  0  0  0  0  0
    4.5446   -5.6790   -0.5575 C   0  0  0  0  0  0  0  0  0  0  0  0
    4.0405   -6.1506    0.1591 H   0  0  0  0  0  0  0  0  0  0  0  0
    5.4666   -5.4660   -0.2470 H   0  0  0  0  0  0  0  0  0  0  0  0
  1  5  1  0
  5  6  2  0
  6  8  1  0
  8 10  2  0
 10 12  1  0
 12  5  1  0
  1  2  1  0
  1  3  1  0
  1  4  1  0
  6  7  1  0
  8  9  1  0
 10 11  1  0
 12 13  1  0
 14 18  1  0
 18 19  2  0
 18 20  1  0
 20 21  1  0
 21 24  1  0
 24 27  1  0
 27 30  1  0
 30 20  1  0
 14 15  1  0
 14 16  1  0
 14 17  1  0
 21 22  1  0
 21 23  1  0
 24 25  1  0
 24 26  1  0
 27 28  1  0
 27 29  1  0
 30 31  1  0
 30 32  1  0
M  CHG  1   8   1
M  END
>  <PDB_ID>  (33) 
pdb1rju

>  <RESIDUE_NAME>  (33) 
HIP   PRO

>  <FRAG_NAME>  (33) 
MIMM   N1PA

>  <FRAG_ATOM_NUM>  (33) 
fragi: 13  fragj: 19

>  <atom.prop.CHAIN_ID>  (33) 
A A A A A A A A A A A A A Z Z Z Z Z Z Z Z Z Z Z Z Z Z Z Z Z Z Z

>  <atom.prop.IS_HEAVY_ATOM>  (33) 
1 0 0 0 1 1 0 1 0 1 0 1 0 1 0 0 0 1 1 1 1 0 0 1 0 0 1 0 0 1 0 0

>  <DIFUSE_FUNC_ATOM>  (33) 
n/a

>  <FINAL_SINGLE_POINT_ENERGY>  (33) 
0

>  <NONCOV_INTER_ENERGY_QM>  (33) 
0

>  <FF_Energy>  (33) 
-17.04

>  <QM_Energy>  (33) 
-26.86

>  <Index>  (33) 
284

$$$$
MIMM-pdb1rh1-A-HIP-91:N1PA-pdb1rh1-A-PRO-235
     RDKit          3D

 32 32  0  0  0  0  0  0  0  0999 V2000
   -0.5442    2.7812    0.0048 C   0  0  0  0  0  0  0  0  0  0  0  0
    0.3050    3.2719    0.2552 H   0  0  0  0  0  0  0  0  0  0  0  0
   -1.2153    2.9344    0.7462 H   0  0  0  0  0  0  0  0  0  0  0  0
   -0.9358    3.1807   -0.9307 H   0  0  0  0  0  0  0  0  0  0  0  0
   -0.2147    1.2862   -0.0008 C   0  0  0  0  0  0  0  0  0  0  0  0
    1.0640    0.7683    0.0000 C   0  0  0  0  0  0  0  0  0  0  0  0
    1.8956    1.3209    0.0022 H   0  0  0  0  0  0  0  0  0  0  0  0
    0.9312   -0.5350   -0.0010 N   0  0  0  0  0  4  0  0  0  0  0  0
    1.6792   -1.2260   -0.0028 H   0  0  0  0  0  0  0  0  0  0  0  0
   -0.3459   -0.8417    0.0002 C   0  0  0  0  0  0  0  0  0  0  0  0
   -0.7165   -1.7775    0.0018 H   0  0  0  0  0  0  0  0  0  0  0  0
   -1.0640    0.2580   -0.0000 N   0  0  0  0  0  0  0  0  0  0  0  0
   -2.0606    0.2986    0.0001 H   0  0  0  0  0  0  0  0  0  0  0  0
    4.3467   -2.7822   -1.6942 C   0  0  0  0  0  0  0  0  0  0  0  0
    4.7822   -3.5043   -2.2607 H   0  0  0  0  0  0  0  0  0  0  0  0
    3.6050   -2.2689   -2.3060 H   0  0  0  0  0  0  0  0  0  0  0  0
    5.1308   -2.1105   -1.3449 H   0  0  0  0  0  0  0  0  0  0  0  0
    3.7496   -3.4405   -0.4598 C   0  0  0  0  0  0  0  0  0  0  0  0
    2.7418   -2.9564    0.0625 O   0  0  0  0  0  0  0  0  0  0  0  0
    4.3202   -4.5549    0.0142 N   0  0  0  0  0  0  0  0  0  0  0  0
    4.0143   -5.1344    1.3167 C   0  0  0  0  0  0  0  0  0  0  0  0
    3.0981   -5.5747    1.3060 H   0  0  0  0  0  0  0  0  0  0  0  0
    4.0806   -4.4116    2.1299 H   0  0  0  0  0  0  0  0  0  0  0  0
    4.9994   -6.2742    1.4206 C   0  0  0  0  0  0  0  0  0  0  0  0
    5.8893   -5.9604    1.7305 H   0  0  0  0  0  0  0  0  0  0  0  0
    4.6600   -6.9976    2.0102 H   0  0  0  0  0  0  0  0  0  0  0  0
    5.0768   -6.7500   -0.0080 C   0  0  0  0  0  0  0  0  0  0  0  0
    5.8738   -7.3114   -0.1445 H   0  0  0  0  0  0  0  0  0  0  0  0
    4.2483   -7.2161   -0.2635 H   0  0  0  0  0  0  0  0  0  0  0  0
    5.2080   -5.4306   -0.7449 C   0  0  0  0  0  0  0  0  0  0  0  0
    6.1475   -5.0993   -0.7194 H   0  0  0  0  0  0  0  0  0  0  0  0
    4.9045   -5.5177   -1.6916 H   0  0  0  0  0  0  0  0  0  0  0  0
  1  5  1  0
  5  6  2  0
  6  8  1  0
  8 10  2  0
 10 12  1  0
 12  5  1  0
  1  2  1  0
  1  3  1  0
  1  4  1  0
  6  7  1  0
  8  9  1  0
 10 11  1  0
 12 13  1  0
 14 18  1  0
 18 19  2  0
 18 20  1  0
 20 21  1  0
 21 24  1  0
 24 27  1  0
 27 30  1  0
 30 20  1  0
 14 15  1  0
 14 16  1  0
 14 17  1  0
 21 22  1  0
 21 23  1  0
 24 25  1  0
 24 26  1  0
 27 28  1  0
 27 29  1  0
 30 31  1  0
 30 32  1  0
M  CHG  1   8   1
M  END
>  <PDB_ID>  (34) 
pdb1rh1

>  <RESIDUE_NAME>  (34) 
HIP   PRO

>  <FRAG_NAME>  (34) 
MIMM   N1PA

>  <FRAG_ATOM_NUM>  (34) 
fragi: 13  fragj: 19

>  <atom.prop.CHAIN_ID>  (34) 
A A A A A A A A A A A A A Z Z Z Z Z Z Z Z Z Z Z Z Z Z Z Z Z Z Z

>  <atom.prop.IS_HEAVY_ATOM>  (34) 
1 0 0 0 1 1 0 1 0 1 0 1 0 1 0 0 0 1 1 1 1 0 0 1 0 0 1 0 0 1 0 0

>  <DIFUSE_FUNC_ATOM>  (34) 
n/a

>  <FINAL_SINGLE_POINT_ENERGY>  (34) 
0

>  <NONCOV_INTER_ENERGY_QM>  (34) 
0

>  <FF_Energy>  (34) 
-15.74

>  <QM_Energy>  (34) 
-25.1

>  <Index>  (34) 
287

$$$$
MIMM-pdb2xri-A-HIP-193:N1PA-pdb2xri-A-PRO-162
     RDKit          3D

 32 32  0  0  0  0  0  0  0  0999 V2000
   -0.6730    2.7403   -0.0243 C   0  0  0  0  0  0  0  0  0  0  0  0
    0.0571    3.3200    0.3629 H   0  0  0  0  0  0  0  0  0  0  0  0
   -1.4750    2.8021    0.5853 H   0  0  0  0  0  0  0  0  0  0  0  0
   -0.9471    3.1292   -1.0049 H   0  0  0  0  0  0  0  0  0  0  0  0
   -0.1947    1.3205   -0.0260 C   0  0  0  0  0  0  0  0  0  0  0  0
    1.0561    0.8016   -0.0000 C   0  0  0  0  0  0  0  0  0  0  0  0
    1.9099    1.3139    0.0117 H   0  0  0  0  0  0  0  0  0  0  0  0
    0.9271   -0.5669    0.0085 N   0  0  0  0  0  4  0  0  0  0  0  0
    1.6849   -1.2222    0.0126 H   0  0  0  0  0  0  0  0  0  0  0  0
   -0.3563   -0.8770    0.0094 C   0  0  0  0  0  0  0  0  0  0  0  0
   -0.7324   -1.7992    0.0174 H   0  0  0  0  0  0  0  0  0  0  0  0
   -1.0561    0.2441    0.0000 N   0  0  0  0  0  0  0  0  0  0  0  0
   -2.0544    0.3048    0.0092 H   0  0  0  0  0  0  0  0  0  0  0  0
    4.6705   -1.4138    1.8643 C   0  0  0  0  0  0  0  0  0  0  0  0
    5.2112   -0.6076    2.1546 H   0  0  0  0  0  0  0  0  0  0  0  0
    3.7628   -1.4483    2.4668 H   0  0  0  0  0  0  0  0  0  0  0  0
    5.2737   -2.3034    2.0454 H   0  0  0  0  0  0  0  0  0  0  0  0
    4.3736   -1.2848    0.3874 C   0  0  0  0  0  0  0  0  0  0  0  0
    3.3898   -1.8151   -0.0775 O   0  0  0  0  0  0  0  0  0  0  0  0
    5.2118   -0.5404   -0.3497 N   0  0  0  0  0  0  0  0  0  0  0  0
    6.3491    0.2402    0.1338 C   0  0  0  0  0  0  0  0  0  0  0  0
    6.9250   -0.3044    0.7441 H   0  0  0  0  0  0  0  0  0  0  0  0
    5.9866    1.1361    0.6378 H   0  0  0  0  0  0  0  0  0  0  0  0
    7.0835    0.6256   -1.1529 C   0  0  0  0  0  0  0  0  0  0  0  0
    7.5316    1.5182   -1.0462 H   0  0  0  0  0  0  0  0  0  0  0  0
    7.7802   -0.0610   -1.3782 H   0  0  0  0  0  0  0  0  0  0  0  0
    6.0208    0.6739   -2.1762 C   0  0  0  0  0  0  0  0  0  0  0  0
    5.5663    1.5753   -2.1848 H   0  0  0  0  0  0  0  0  0  0  0  0
    6.3975    0.5066   -3.0970 H   0  0  0  0  0  0  0  0  0  0  0  0
    5.0362   -0.4085   -1.8054 C   0  0  0  0  0  0  0  0  0  0  0  0
    4.0990   -0.1388   -2.0244 H   0  0  0  0  0  0  0  0  0  0  0  0
    5.2509   -1.2701   -2.2662 H   0  0  0  0  0  0  0  0  0  0  0  0
  1  5  1  0
  5  6  2  0
  6  8  1  0
  8 10  2  0
 10 12  1  0
 12  5  1  0
  1  2  1  0
  1  3  1  0
  1  4  1  0
  6  7  1  0
  8  9  1  0
 10 11  1  0
 12 13  1  0
 14 18  1  0
 18 19  2  0
 18 20  1  0
 20 21  1  0
 21 24  1  0
 24 27  1  0
 27 30  1  0
 30 20  1  0
 14 15  1  0
 14 16  1  0
 14 17  1  0
 21 22  1  0
 21 23  1  0
 24 25  1  0
 24 26  1  0
 27 28  1  0
 27 29  1  0
 30 31  1  0
 30 32  1  0
M  CHG  1   8   1
M  END
>  <PDB_ID>  (35) 
pdb2xri

>  <RESIDUE_NAME>  (35) 
HIP   PRO

>  <FRAG_NAME>  (35) 
MIMM   N1PA

>  <FRAG_ATOM_NUM>  (35) 
fragi: 13  fragj: 19

>  <atom.prop.CHAIN_ID>  (35) 
A A A A A A A A A A A A A Z Z Z Z Z Z Z Z Z Z Z Z Z Z Z Z Z Z Z

>  <atom.prop.IS_HEAVY_ATOM>  (35) 
1 0 0 0 1 1 0 1 0 1 0 1 0 1 0 0 0 1 1 1 1 0 0 1 0 0 1 0 0 1 0 0

>  <DIFUSE_FUNC_ATOM>  (35) 
n/a

>  <FINAL_SINGLE_POINT_ENERGY>  (35) 
0

>  <NONCOV_INTER_ENERGY_QM>  (35) 
0

>  <FF_Energy>  (35) 
-15.03

>  <QM_Energy>  (35) 
-22.57

>  <Index>  (35) 
288

$$$$
MIMM-pdb2xu2-A-HIP-68:N1PA-pdb2xu2-A-PRO-116
     RDKit          3D

 32 32  0  0  0  0  0  0  0  0999 V2000
   -0.6618    2.7472    0.0069 C   0  0  0  0  0  0  0  0  0  0  0  0
   -0.8376    3.0146   -0.9511 H   0  0  0  0  0  0  0  0  0  0  0  0
    0.0871    3.3268    0.3573 H   0  0  0  0  0  0  0  0  0  0  0  0
   -1.5587    2.9438    0.5942 H   0  0  0  0  0  0  0  0  0  0  0  0
   -0.1951    1.3203    0.0181 C   0  0  0  0  0  0  0  0  0  0  0  0
    1.0548    0.7989    0.0000 C   0  0  0  0  0  0  0  0  0  0  0  0
    1.9102    1.3123   -0.0099 H   0  0  0  0  0  0  0  0  0  0  0  0
    0.9283   -0.5682    0.0001 N   0  0  0  0  0  4  0  0  0  0  0  0
    1.6846   -1.2232    0.0048 H   0  0  0  0  0  0  0  0  0  0  0  0
   -0.3552   -0.8752   -0.0085 C   0  0  0  0  0  0  0  0  0  0  0  0
   -0.7331   -1.7973   -0.0182 H   0  0  0  0  0  0  0  0  0  0  0  0
   -1.0548    0.2463   -0.0000 N   0  0  0  0  0  0  0  0  0  0  0  0
   -2.0535    0.3056   -0.0065 H   0  0  0  0  0  0  0  0  0  0  0  0
   -5.4473   -0.1983   -0.5134 C   0  0  0  0  0  0  0  0  0  0  0  0
   -6.1882   -0.8688   -0.3969 H   0  0  0  0  0  0  0  0  0  0  0  0
   -5.8862    0.7868   -0.6718 H   0  0  0  0  0  0  0  0  0  0  0  0
   -4.8473   -0.5075   -1.3693 H   0  0  0  0  0  0  0  0  0  0  0  0
   -4.5722   -0.2130    0.7421 C   0  0  0  0  0  0  0  0  0  0  0  0
   -3.4408    0.2527    0.7210 O   0  0  0  0  0  0  0  0  0  0  0  0
   -5.0735   -0.8064    1.8314 N   0  0  0  0  0  0  0  0  0  0  0  0
   -4.2317   -0.9967    3.0023 C   0  0  0  0  0  0  0  0  0  0  0  0
   -4.0725   -0.1193    3.4842 H   0  0  0  0  0  0  0  0  0  0  0  0
   -3.2780   -1.4667    2.7623 H   0  0  0  0  0  0  0  0  0  0  0  0
   -5.0822   -1.9140    3.8953 C   0  0  0  0  0  0  0  0  0  0  0  0
   -4.8108   -2.8764    3.7635 H   0  0  0  0  0  0  0  0  0  0  0  0
   -4.9443   -1.6799    4.8654 H   0  0  0  0  0  0  0  0  0  0  0  0
   -6.4787   -1.6852    3.4767 C   0  0  0  0  0  0  0  0  0  0  0  0
   -7.0456   -2.4993    3.6569 H   0  0  0  0  0  0  0  0  0  0  0  0
   -6.8796   -0.9071    3.9769 H   0  0  0  0  0  0  0  0  0  0  0  0
   -6.4124   -1.3977    2.0109 C   0  0  0  0  0  0  0  0  0  0  0  0
   -6.4996   -2.2338    1.4647 H   0  0  0  0  0  0  0  0  0  0  0  0
   -7.1217   -0.7475    1.7273 H   0  0  0  0  0  0  0  0  0  0  0  0
  1  5  1  0
  5  6  2  0
  6  8  1  0
  8 10  2  0
 10 12  1  0
 12  5  1  0
  1  2  1  0
  1  3  1  0
  1  4  1  0
  6  7  1  0
  8  9  1  0
 10 11  1  0
 12 13  1  0
 14 18  1  0
 18 19  2  0
 18 20  1  0
 20 21  1  0
 21 24  1  0
 24 27  1  0
 27 30  1  0
 30 20  1  0
 14 15  1  0
 14 16  1  0
 14 17  1  0
 21 22  1  0
 21 23  1  0
 24 25  1  0
 24 26  1  0
 27 28  1  0
 27 29  1  0
 30 31  1  0
 30 32  1  0
M  CHG  1   8   1
M  END
>  <PDB_ID>  (36) 
pdb2xu2

>  <RESIDUE_NAME>  (36) 
HIP   PRO

>  <FRAG_NAME>  (36) 
MIMM   N1PA

>  <FRAG_ATOM_NUM>  (36) 
fragi: 13  fragj: 19

>  <atom.prop.CHAIN_ID>  (36) 
A A A A A A A A A A A A A Z Z Z Z Z Z Z Z Z Z Z Z Z Z Z Z Z Z Z

>  <atom.prop.IS_HEAVY_ATOM>  (36) 
1 0 0 0 1 1 0 1 0 1 0 1 0 1 0 0 0 1 1 1 1 0 0 1 0 0 1 0 0 1 0 0

>  <DIFUSE_FUNC_ATOM>  (36) 
n/a

>  <FINAL_SINGLE_POINT_ENERGY>  (36) 
0

>  <NONCOV_INTER_ENERGY_QM>  (36) 
0

>  <FF_Energy>  (36) 
-14.77

>  <QM_Energy>  (36) 
-24.64

>  <Index>  (36) 
289

$$$$
MIMM-pdb1sra-A-HIP-247:N1PA-pdb1sra-A-PRO-137
     RDKit          3D

 32 32  0  0  0  0  0  0  0  0999 V2000
   -0.6924    2.7288   -0.0735 C   0  0  0  0  0  0  0  0  0  0  0  0
    0.0973    3.3467   -0.0283 H   0  0  0  0  0  0  0  0  0  0  0  0
   -1.2854    2.9027    0.7170 H   0  0  0  0  0  0  0  0  0  0  0  0
   -1.2535    2.9488   -0.9817 H   0  0  0  0  0  0  0  0  0  0  0  0
   -0.2033    1.3200   -0.0045 C   0  0  0  0  0  0  0  0  0  0  0  0
    1.0558    0.8066   -0.0000 C   0  0  0  0  0  0  0  0  0  0  0  0
    1.9036    1.3228    0.0041 H   0  0  0  0  0  0  0  0  0  0  0  0
    0.9290   -0.5615   -0.0004 N   0  0  0  0  0  4  0  0  0  0  0  0
    1.6880   -1.2167   -0.0024 H   0  0  0  0  0  0  0  0  0  0  0  0
   -0.3568   -0.8791    0.0014 C   0  0  0  0  0  0  0  0  0  0  0  0
   -0.7257   -1.8029    0.0049 H   0  0  0  0  0  0  0  0  0  0  0  0
   -1.0558    0.2377    0.0000 N   0  0  0  0  0  0  0  0  0  0  0  0
   -2.0577    0.2959    0.0014 H   0  0  0  0  0  0  0  0  0  0  0  0
    2.8376    3.9882    3.0099 C   0  0  0  0  0  0  0  0  0  0  0  0
    3.6012    4.3500    3.5689 H   0  0  0  0  0  0  0  0  0  0  0  0
    2.0116    4.6989    3.0383 H   0  0  0  0  0  0  0  0  0  0  0  0
    2.5540    3.0827    3.5464 H   0  0  0  0  0  0  0  0  0  0  0  0
    3.2587    3.6660    1.6217 C   0  0  0  0  0  0  0  0  0  0  0  0
    2.4374    3.4327    0.7511 O   0  0  0  0  0  0  0  0  0  0  0  0
    4.5670    3.5054    1.4304 N   0  0  0  0  0  0  0  0  0  0  0  0
    5.1369    3.2132    0.1243 C   0  0  0  0  0  0  0  0  0  0  0  0
    4.9147    3.9276   -0.5402 H   0  0  0  0  0  0  0  0  0  0  0  0
    4.7758    2.2452   -0.2230 H   0  0  0  0  0  0  0  0  0  0  0  0
    6.6405    3.1994    0.3923 C   0  0  0  0  0  0  0  0  0  0  0  0
    7.1009    2.5291   -0.1933 H   0  0  0  0  0  0  0  0  0  0  0  0
    7.0399    4.1036    0.2349 H   0  0  0  0  0  0  0  0  0  0  0  0
    6.7540    2.8106    1.8374 C   0  0  0  0  0  0  0  0  0  0  0  0
    6.6233    1.8336    1.9478 H   0  0  0  0  0  0  0  0  0  0  0  0
    7.6303    3.0925    2.2067 H   0  0  0  0  0  0  0  0  0  0  0  0
    5.6237    3.5841    2.4721 C   0  0  0  0  0  0  0  0  0  0  0  0
    5.3135    3.1552    3.3120 H   0  0  0  0  0  0  0  0  0  0  0  0
    5.8760    4.5318    2.6385 H   0  0  0  0  0  0  0  0  0  0  0  0
  1  5  1  0
  5  6  2  0
  6  8  1  0
  8 10  2  0
 10 12  1  0
 12  5  1  0
  1  2  1  0
  1  3  1  0
  1  4  1  0
  6  7  1  0
  8  9  1  0
 10 11  1  0
 12 13  1  0
 14 18  1  0
 18 19  2  0
 18 20  1  0
 20 21  1  0
 21 24  1  0
 24 27  1  0
 27 30  1  0
 30 20  1  0
 14 15  1  0
 14 16  1  0
 14 17  1  0
 21 22  1  0
 21 23  1  0
 24 25  1  0
 24 26  1  0
 27 28  1  0
 27 29  1  0
 30 31  1  0
 30 32  1  0
M  CHG  1   8   1
M  END
>  <PDB_ID>  (37) 
pdb1sra

>  <RESIDUE_NAME>  (37) 
HIP   PRO

>  <FRAG_NAME>  (37) 
MIMM   N1PA

>  <FRAG_ATOM_NUM>  (37) 
fragi: 13  fragj: 19

>  <atom.prop.CHAIN_ID>  (37) 
A A A A A A A A A A A A A Z Z Z Z Z Z Z Z Z Z Z Z Z Z Z Z Z Z Z

>  <atom.prop.IS_HEAVY_ATOM>  (37) 
1 0 0 0 1 1 0 1 0 1 0 1 0 1 0 0 0 1 1 1 1 0 0 1 0 0 1 0 0 1 0 0

>  <DIFUSE_FUNC_ATOM>  (37) 
n/a

>  <FINAL_SINGLE_POINT_ENERGY>  (37) 
0

>  <NONCOV_INTER_ENERGY_QM>  (37) 
0

>  <FF_Energy>  (37) 
-9.81

>  <QM_Energy>  (37) 
-15.64

>  <Index>  (37) 
303

$$$$
MIMM-pdb1stf-E-HIP-81:N1PA-pdb1stf-E-PRO-102
     RDKit          3D

 32 32  0  0  0  0  0  0  0  0999 V2000
   -0.5127    2.8104    0.0175 C   0  0  0  0  0  0  0  0  0  0  0  0
   -1.4384    2.8876   -0.3030 H   0  0  0  0  0  0  0  0  0  0  0  0
    0.1249    3.2846   -0.5597 H   0  0  0  0  0  0  0  0  0  0  0  0
   -0.4398    3.1869    1.0378 H   0  0  0  0  0  0  0  0  0  0  0  0
   -0.1351    1.3133   -0.0029 C   0  0  0  0  0  0  0  0  0  0  0  0
    1.0820    0.7564   -0.0000 C   0  0  0  0  0  0  0  0  0  0  0  0
    1.9639    1.2495    0.0005 H   0  0  0  0  0  0  0  0  0  0  0  0
    0.9479   -0.6168    0.0041 N   0  0  0  0  0  4  0  0  0  0  0  0
    1.6531   -1.2919    0.0074 H   0  0  0  0  0  0  0  0  0  0  0  0
   -0.4113   -0.8951    0.0001 C   0  0  0  0  0  0  0  0  0  0  0  0
   -0.8127   -1.7708   -0.0011 H   0  0  0  0  0  0  0  0  0  0  0  0
   -1.0820    0.3179    0.0000 N   0  0  0  0  0  0  0  0  0  0  0  0
   -2.0537    0.4109    0.0009 H   0  0  0  0  0  0  0  0  0  0  0  0
    3.9758   -3.4890   -1.8637 C   0  0  0  0  0  0  0  0  0  0  0  0
    4.1981   -4.4661   -1.9500 H   0  0  0  0  0  0  0  0  0  0  0  0
    4.8226   -2.9593   -1.9873 H   0  0  0  0  0  0  0  0  0  0  0  0
    3.2559   -3.2102   -2.6332 H   0  0  0  0  0  0  0  0  0  0  0  0
    3.4128   -3.2213   -0.4755 C   0  0  0  0  0  0  0  0  0  0  0  0
    2.2154   -3.3739   -0.2242 O   0  0  0  0  0  0  0  0  0  0  0  0
    4.2878   -3.0600    0.4549 N   0  0  0  0  0  0  0  0  0  0  0  0
    3.8191   -2.9858    1.8359 C   0  0  0  0  0  0  0  0  0  0  0  0
    3.1943   -3.7510    2.0478 H   0  0  0  0  0  0  0  0  0  0  0  0
    3.3358   -2.0331    2.0527 H   0  0  0  0  0  0  0  0  0  0  0  0
    5.0733   -3.2590    2.6818 C   0  0  0  0  0  0  0  0  0  0  0  0
    5.1675   -2.5709    3.4141 H   0  0  0  0  0  0  0  0  0  0  0  0
    5.0238   -4.1690    3.1127 H   0  0  0  0  0  0  0  0  0  0  0  0
    6.2693   -3.1888    1.7410 C   0  0  0  0  0  0  0  0  0  0  0  0
    6.7998   -2.3501    1.9211 H   0  0  0  0  0  0  0  0  0  0  0  0
    6.8740   -3.9813    1.8954 H   0  0  0  0  0  0  0  0  0  0  0  0
    5.7353   -3.1904    0.3128 C   0  0  0  0  0  0  0  0  0  0  0  0
    6.1174   -2.4218   -0.2096 H   0  0  0  0  0  0  0  0  0  0  0  0
    5.9770   -4.0475   -0.1552 H   0  0  0  0  0  0  0  0  0  0  0  0
  1  5  1  0
  5  6  2  0
  6  8  1  0
  8 10  2  0
 10 12  1  0
 12  5  1  0
  1  2  1  0
  1  3  1  0
  1  4  1  0
  6  7  1  0
  8  9  1  0
 10 11  1  0
 12 13  1  0
 14 18  1  0
 18 19  2  0
 18 20  1  0
 20 21  1  0
 21 24  1  0
 24 27  1  0
 27 30  1  0
 30 20  1  0
 14 15  1  0
 14 16  1  0
 14 17  1  0
 21 22  1  0
 21 23  1  0
 24 25  1  0
 24 26  1  0
 27 28  1  0
 27 29  1  0
 30 31  1  0
 30 32  1  0
M  CHG  1   8   1
M  END
>  <PDB_ID>  (38) 
pdb1stf

>  <RESIDUE_NAME>  (38) 
HIP   PRO

>  <FRAG_NAME>  (38) 
MIMM   N1PA

>  <FRAG_ATOM_NUM>  (38) 
fragi: 13  fragj: 19

>  <atom.prop.CHAIN_ID>  (38) 
A A A A A A A A A A A A A Z Z Z Z Z Z Z Z Z Z Z Z Z Z Z Z Z Z Z

>  <atom.prop.IS_HEAVY_ATOM>  (38) 
1 0 0 0 1 1 0 1 0 1 0 1 0 1 0 0 0 1 1 1 1 0 0 1 0 0 1 0 0 1 0 0

>  <DIFUSE_FUNC_ATOM>  (38) 
n/a

>  <FINAL_SINGLE_POINT_ENERGY>  (38) 
0

>  <NONCOV_INTER_ENERGY_QM>  (38) 
0

>  <FF_Energy>  (38) 
-11.17

>  <QM_Energy>  (38) 
-19.18

>  <Index>  (38) 
306

$$$$
MIMM-pdb2yh2-C-HIP-284:N1PA-pdb2yh2-C-PRO-186
     RDKit          3D

 32 32  0  0  0  0  0  0  0  0999 V2000
   -0.6662    2.7329    0.0205 C   0  0  0  0  0  0  0  0  0  0  0  0
   -1.4117    2.8178   -0.6524 H   0  0  0  0  0  0  0  0  0  0  0  0
    0.0946    3.3231   -0.2778 H   0  0  0  0  0  0  0  0  0  0  0  0
   -1.0228    3.0768    0.9914 H   0  0  0  0  0  0  0  0  0  0  0  0
   -0.1911    1.3195    0.0188 C   0  0  0  0  0  0  0  0  0  0  0  0
    1.0565    0.7999   -0.0000 C   0  0  0  0  0  0  0  0  0  0  0  0
    1.9127    1.3106    0.0033 H   0  0  0  0  0  0  0  0  0  0  0  0
    0.9266   -0.5683   -0.0227 N   0  0  0  0  0  4  0  0  0  0  0  0
    1.6819   -1.2240   -0.0496 H   0  0  0  0  0  0  0  0  0  0  0  0
   -0.3581   -0.8752   -0.0053 C   0  0  0  0  0  0  0  0  0  0  0  0
   -0.7355   -1.7974    0.0039 H   0  0  0  0  0  0  0  0  0  0  0  0
   -1.0565    0.2463    0.0000 N   0  0  0  0  0  0  0  0  0  0  0  0
   -2.0532    0.3096   -0.0093 H   0  0  0  0  0  0  0  0  0  0  0  0
   -3.5569   -3.1156    2.7355 C   0  0  0  0  0  0  0  0  0  0  0  0
   -4.5180   -3.1291    2.4121 H   0  0  0  0  0  0  0  0  0  0  0  0
   -3.5482   -3.4360    3.7773 H   0  0  0  0  0  0  0  0  0  0  0  0
   -3.2907   -2.0653    2.6159 H   0  0  0  0  0  0  0  0  0  0  0  0
   -2.7377   -4.0252    1.8198 C   0  0  0  0  0  0  0  0  0  0  0  0
   -1.7543   -3.5991    1.2100 O   0  0  0  0  0  0  0  0  0  0  0  0
   -3.1508   -5.2944    1.7070 N   0  0  0  0  0  0  0  0  0  0  0  0
   -2.3956   -6.2485    0.9070 C   0  0  0  0  0  0  0  0  0  0  0  0
   -1.4163   -6.2456    1.1722 H   0  0  0  0  0  0  0  0  0  0  0  0
   -2.4993   -6.0727   -0.1637 H   0  0  0  0  0  0  0  0  0  0  0  0
   -3.0675   -7.5646    1.2435 C   0  0  0  0  0  0  0  0  0  0  0  0
   -2.9879   -8.2127    0.4866 H   0  0  0  0  0  0  0  0  0  0  0  0
   -2.6768   -7.9666    2.0705 H   0  0  0  0  0  0  0  0  0  0  0  0
   -4.4870   -7.1709    1.4597 C   0  0  0  0  0  0  0  0  0  0  0  0
   -4.9535   -7.0383    0.5835 H   0  0  0  0  0  0  0  0  0  0  0  0
   -4.9698   -7.8720    1.9869 H   0  0  0  0  0  0  0  0  0  0  0  0
   -4.3949   -5.8905    2.2217 C   0  0  0  0  0  0  0  0  0  0  0  0
   -5.1722   -5.2904    2.0349 H   0  0  0  0  0  0  0  0  0  0  0  0
   -4.3243   -6.0486    3.2068 H   0  0  0  0  0  0  0  0  0  0  0  0
  1  5  1  0
  5  6  2  0
  6  8  1  0
  8 10  2  0
 10 12  1  0
 12  5  1  0
  1  2  1  0
  1  3  1  0
  1  4  1  0
  6  7  1  0
  8  9  1  0
 10 11  1  0
 12 13  1  0
 14 18  1  0
 18 19  2  0
 18 20  1  0
 20 21  1  0
 21 24  1  0
 24 27  1  0
 27 30  1  0
 30 20  1  0
 14 15  1  0
 14 16  1  0
 14 17  1  0
 21 22  1  0
 21 23  1  0
 24 25  1  0
 24 26  1  0
 27 28  1  0
 27 29  1  0
 30 31  1  0
 30 32  1  0
M  CHG  1   8   1
M  END
>  <PDB_ID>  (39) 
pdb2yh2

>  <RESIDUE_NAME>  (39) 
HIP   PRO

>  <FRAG_NAME>  (39) 
MIMM   N1PA

>  <FRAG_ATOM_NUM>  (39) 
fragi: 13  fragj: 19

>  <atom.prop.CHAIN_ID>  (39) 
A A A A A A A A A A A A A Z Z Z Z Z Z Z Z Z Z Z Z Z Z Z Z Z Z Z

>  <atom.prop.IS_HEAVY_ATOM>  (39) 
1 0 0 0 1 1 0 1 0 1 0 1 0 1 0 0 0 1 1 1 1 0 0 1 0 0 1 0 0 1 0 0

>  <DIFUSE_FUNC_ATOM>  (39) 
n/a

>  <FINAL_SINGLE_POINT_ENERGY>  (39) 
0

>  <NONCOV_INTER_ENERGY_QM>  (39) 
0

>  <FF_Energy>  (39) 
-9.78

>  <QM_Energy>  (39) 
-16.67

>  <Index>  (39) 
316

$$$$
MIMM-pdb2yh2-D-HIP-284:N1PA-pdb2yh2-D-PRO-186
     RDKit          3D

 32 32  0  0  0  0  0  0  0  0999 V2000
   -0.6599    2.7389    0.0217 C   0  0  0  0  0  0  0  0  0  0  0  0
   -1.3221    2.8585   -0.7270 H   0  0  0  0  0  0  0  0  0  0  0  0
    0.1324    3.3342   -0.1565 H   0  0  0  0  0  0  0  0  0  0  0  0
   -1.1255    3.0354    0.9616 H   0  0  0  0  0  0  0  0  0  0  0  0
   -0.1903    1.3197    0.0096 C   0  0  0  0  0  0  0  0  0  0  0  0
    1.0590    0.7974    0.0000 C   0  0  0  0  0  0  0  0  0  0  0  0
    1.9145    1.3087   -0.0040 H   0  0  0  0  0  0  0  0  0  0  0  0
    0.9269   -0.5675   -0.0015 N   0  0  0  0  0  4  0  0  0  0  0  0
    1.6813   -1.2271   -0.0013 H   0  0  0  0  0  0  0  0  0  0  0  0
   -0.3597   -0.8737   -0.0045 C   0  0  0  0  0  0  0  0  0  0  0  0
   -0.7366   -1.7966   -0.0080 H   0  0  0  0  0  0  0  0  0  0  0  0
   -1.0590    0.2470   -0.0000 N   0  0  0  0  0  0  0  0  0  0  0  0
   -2.0546    0.3121   -0.0036 H   0  0  0  0  0  0  0  0  0  0  0  0
   -4.1422   -3.1255    1.8011 C   0  0  0  0  0  0  0  0  0  0  0  0
   -5.0550   -3.0588    1.3535 H   0  0  0  0  0  0  0  0  0  0  0  0
   -4.2973   -3.5339    2.7997 H   0  0  0  0  0  0  0  0  0  0  0  0
   -3.8194   -2.0847    1.8237 H   0  0  0  0  0  0  0  0  0  0  0  0
   -3.2378   -3.9659    0.9192 C   0  0  0  0  0  0  0  0  0  0  0  0
   -2.1679   -3.5222    0.5270 O   0  0  0  0  0  0  0  0  0  0  0  0
   -3.6816   -5.1816    0.5784 N   0  0  0  0  0  0  0  0  0  0  0  0
   -2.8445   -6.0944   -0.1799 C   0  0  0  0  0  0  0  0  0  0  0  0
   -1.9127   -6.1469    0.2241 H   0  0  0  0  0  0  0  0  0  0  0  0
   -2.7902   -5.8353   -1.2373 H   0  0  0  0  0  0  0  0  0  0  0  0
   -3.5812   -7.4211   -0.0442 C   0  0  0  0  0  0  0  0  0  0  0  0
   -3.3733   -8.0194   -0.8250 H   0  0  0  0  0  0  0  0  0  0  0  0
   -3.3081   -7.8894    0.8012 H   0  0  0  0  0  0  0  0  0  0  0  0
   -4.9947   -7.0374   -0.0186 C   0  0  0  0  0  0  0  0  0  0  0  0
   -5.3434   -6.8415   -0.9349 H   0  0  0  0  0  0  0  0  0  0  0  0
   -5.5624   -7.7392    0.4107 H   0  0  0  0  0  0  0  0  0  0  0  0
   -5.0149   -5.7637    0.8281 C   0  0  0  0  0  0  0  0  0  0  0  0
   -5.7338   -5.1464    0.5243 H   0  0  0  0  0  0  0  0  0  0  0  0
   -5.1327   -5.9805    1.7928 H   0  0  0  0  0  0  0  0  0  0  0  0
  1  5  1  0
  5  6  2  0
  6  8  1  0
  8 10  2  0
 10 12  1  0
 12  5  1  0
  1  2  1  0
  1  3  1  0
  1  4  1  0
  6  7  1  0
  8  9  1  0
 10 11  1  0
 12 13  1  0
 14 18  1  0
 18 19  2  0
 18 20  1  0
 20 21  1  0
 21 24  1  0
 24 27  1  0
 27 30  1  0
 30 20  1  0
 14 15  1  0
 14 16  1  0
 14 17  1  0
 21 22  1  0
 21 23  1  0
 24 25  1  0
 24 26  1  0
 27 28  1  0
 27 29  1  0
 30 31  1  0
 30 32  1  0
M  CHG  1   8   1
M  END
>  <PDB_ID>  (40) 
pdb2yh2

>  <RESIDUE_NAME>  (40) 
HIP   PRO

>  <FRAG_NAME>  (40) 
MIMM   N1PA

>  <FRAG_ATOM_NUM>  (40) 
fragi: 13  fragj: 19

>  <atom.prop.CHAIN_ID>  (40) 
A A A A A A A A A A A A A Z Z Z Z Z Z Z Z Z Z Z Z Z Z Z Z Z Z Z

>  <atom.prop.IS_HEAVY_ATOM>  (40) 
1 0 0 0 1 1 0 1 0 1 0 1 0 1 0 0 0 1 1 1 1 0 0 1 0 0 1 0 0 1 0 0

>  <DIFUSE_FUNC_ATOM>  (40) 
n/a

>  <FINAL_SINGLE_POINT_ENERGY>  (40) 
0

>  <NONCOV_INTER_ENERGY_QM>  (40) 
0

>  <FF_Energy>  (40) 
-9.57

>  <QM_Energy>  (40) 
-17.32

>  <Index>  (40) 
318

$$$$
MIMM-pdb1tp9-A-HIP-30:N1PA-pdb1tp9-A-PRO-11
     RDKit          3D

 32 32  0  0  0  0  0  0  0  0999 V2000
   -0.6853    2.7321   -0.1131 C   0  0  0  0  0  0  0  0  0  0  0  0
   -1.0541    2.9802    0.7919 H   0  0  0  0  0  0  0  0  0  0  0  0
   -1.4376    2.7798   -0.7825 H   0  0  0  0  0  0  0  0  0  0  0  0
    0.0720    3.4649   -0.3920 H   0  0  0  0  0  0  0  0  0  0  0  0
   -0.1919    1.3210   -0.0538 C   0  0  0  0  0  0  0  0  0  0  0  0
    1.0585    0.7967   -0.0000 C   0  0  0  0  0  0  0  0  0  0  0  0
    1.9133    1.3085    0.0279 H   0  0  0  0  0  0  0  0  0  0  0  0
    0.9298   -0.5725    0.0099 N   0  0  0  0  0  4  0  0  0  0  0  0
    1.6846   -1.2283    0.0074 H   0  0  0  0  0  0  0  0  0  0  0  0
   -0.3555   -0.8771    0.0215 C   0  0  0  0  0  0  0  0  0  0  0  0
   -0.7379   -1.7962    0.0439 H   0  0  0  0  0  0  0  0  0  0  0  0
   -1.0585    0.2511    0.0000 N   0  0  0  0  0  0  0  0  0  0  0  0
   -2.0532    0.3114    0.0188 H   0  0  0  0  0  0  0  0  0  0  0  0
    4.5914   -3.5646   -1.3864 C   0  0  0  0  0  0  0  0  0  0  0  0
    5.4264   -4.0153   -1.0636 H   0  0  0  0  0  0  0  0  0  0  0  0
    4.0738   -4.2401   -2.0674 H   0  0  0  0  0  0  0  0  0  0  0  0
    4.8651   -2.6557   -1.9221 H   0  0  0  0  0  0  0  0  0  0  0  0
    3.7088   -3.2576   -0.1779 C   0  0  0  0  0  0  0  0  0  0  0  0
    2.5379   -2.8450   -0.3392 O   0  0  0  0  0  0  0  0  0  0  0  0
    4.2125   -3.4342    1.0518 N   0  0  0  0  0  0  0  0  0  0  0  0
    3.4033   -3.1227    2.2421 C   0  0  0  0  0  0  0  0  0  0  0  0
    2.5382   -3.6557    2.2243 H   0  0  0  0  0  0  0  0  0  0  0  0
    3.2042   -2.0568    2.3525 H   0  0  0  0  0  0  0  0  0  0  0  0
    4.2526   -3.6507    3.4082 C   0  0  0  0  0  0  0  0  0  0  0  0
    4.1613   -2.9775    4.1916 H   0  0  0  0  0  0  0  0  0  0  0  0
    3.7960   -4.5103    3.7647 H   0  0  0  0  0  0  0  0  0  0  0  0
    5.4922   -3.8199    2.9569 C   0  0  0  0  0  0  0  0  0  0  0  0
    6.1505   -3.0388    3.1989 H   0  0  0  0  0  0  0  0  0  0  0  0
    5.9870   -4.6554    3.3565 H   0  0  0  0  0  0  0  0  0  0  0  0
    5.5197   -3.9713    1.4370 C   0  0  0  0  0  0  0  0  0  0  0  0
    6.2584   -3.4369    1.0418 H   0  0  0  0  0  0  0  0  0  0  0  0
    5.6062   -4.9281    1.1790 H   0  0  0  0  0  0  0  0  0  0  0  0
  1  5  1  0
  5  6  2  0
  6  8  1  0
  8 10  2  0
 10 12  1  0
 12  5  1  0
  1  2  1  0
  1  3  1  0
  1  4  1  0
  6  7  1  0
  8  9  1  0
 10 11  1  0
 12 13  1  0
 14 18  1  0
 18 19  2  0
 18 20  1  0
 20 21  1  0
 21 24  1  0
 24 27  1  0
 27 30  1  0
 30 20  1  0
 14 15  1  0
 14 16  1  0
 14 17  1  0
 21 22  1  0
 21 23  1  0
 24 25  1  0
 24 26  1  0
 27 28  1  0
 27 29  1  0
 30 31  1  0
 30 32  1  0
M  CHG  1   8   1
M  END
>  <PDB_ID>  (41) 
pdb1tp9

>  <RESIDUE_NAME>  (41) 
HIP   PRO

>  <FRAG_NAME>  (41) 
MIMM   N1PA

>  <FRAG_ATOM_NUM>  (41) 
fragi: 13  fragj: 19

>  <atom.prop.CHAIN_ID>  (41) 
A A A A A A A A A A A A A Z Z Z Z Z Z Z Z Z Z Z Z Z Z Z Z Z Z Z

>  <atom.prop.IS_HEAVY_ATOM>  (41) 
1 0 0 0 1 1 0 1 0 1 0 1 0 1 0 0 0 1 1 1 1 0 0 1 0 0 1 0 0 1 0 0

>  <DIFUSE_FUNC_ATOM>  (41) 
n/a

>  <FINAL_SINGLE_POINT_ENERGY>  (41) 
0

>  <NONCOV_INTER_ENERGY_QM>  (41) 
0

>  <FF_Energy>  (41) 
-16.55

>  <QM_Energy>  (41) 
-25.5

>  <Index>  (41) 
328

$$$$
MIMM-pdb1tp9-B-HIP-30:N1PA-pdb1tp9-B-PRO-11
     RDKit          3D

 32 32  0  0  0  0  0  0  0  0999 V2000
   -0.6653    2.7390    0.1034 C   0  0  0  0  0  0  0  0  0  0  0  0
   -1.0203    2.9385    1.0264 H   0  0  0  0  0  0  0  0  0  0  0  0
   -1.4251    2.8388   -0.5524 H   0  0  0  0  0  0  0  0  0  0  0  0
    0.1098    3.4652   -0.1418 H   0  0  0  0  0  0  0  0  0  0  0  0
   -0.2030    1.3213    0.0735 C   0  0  0  0  0  0  0  0  0  0  0  0
    1.0573    0.8105   -0.0000 C   0  0  0  0  0  0  0  0  0  0  0  0
    1.9052    1.3227   -0.0170 H   0  0  0  0  0  0  0  0  0  0  0  0
    0.9354   -0.5730   -0.0461 N   0  0  0  0  0  4  0  0  0  0  0  0
    1.6884   -1.2189   -0.0880 H   0  0  0  0  0  0  0  0  0  0  0  0
   -0.3575   -0.8784   -0.0254 C   0  0  0  0  0  0  0  0  0  0  0  0
   -0.7324   -1.8010   -0.0273 H   0  0  0  0  0  0  0  0  0  0  0  0
   -1.0573    0.2423    0.0000 N   0  0  0  0  0  0  0  0  0  0  0  0
   -2.0574    0.3012   -0.0303 H   0  0  0  0  0  0  0  0  0  0  0  0
    4.9707   -2.7210   -1.8199 C   0  0  0  0  0  0  0  0  0  0  0  0
    5.8358   -3.1863   -1.5752 H   0  0  0  0  0  0  0  0  0  0  0  0
    4.5191   -3.2249   -2.6745 H   0  0  0  0  0  0  0  0  0  0  0  0
    5.1413   -1.6968   -2.1515 H   0  0  0  0  0  0  0  0  0  0  0  0
    4.0611   -2.7502   -0.5759 C   0  0  0  0  0  0  0  0  0  0  0  0
    2.8591   -2.4546   -0.6844 O   0  0  0  0  0  0  0  0  0  0  0  0
    4.5212   -3.1084    0.6148 N   0  0  0  0  0  0  0  0  0  0  0  0
    3.6611   -3.0278    1.7969 C   0  0  0  0  0  0  0  0  0  0  0  0
    2.8254   -3.5852    1.6681 H   0  0  0  0  0  0  0  0  0  0  0  0
    3.4014   -1.9997    2.0495 H   0  0  0  0  0  0  0  0  0  0  0  0
    4.4958   -3.6120    2.9108 C   0  0  0  0  0  0  0  0  0  0  0  0
    4.3848   -3.0993    3.7593 H   0  0  0  0  0  0  0  0  0  0  0  0
    4.2803   -4.5728    3.0649 H   0  0  0  0  0  0  0  0  0  0  0  0
    5.9030   -3.4654    2.3895 C   0  0  0  0  0  0  0  0  0  0  0  0
    6.2754   -2.5620    2.6974 H   0  0  0  0  0  0  0  0  0  0  0  0
    6.4942   -4.1741    2.8345 H   0  0  0  0  0  0  0  0  0  0  0  0
    5.8690   -3.5913    0.9634 C   0  0  0  0  0  0  0  0  0  0  0  0
    6.5595   -3.0249    0.4949 H   0  0  0  0  0  0  0  0  0  0  0  0
    5.9777   -4.5423    0.6422 H   0  0  0  0  0  0  0  0  0  0  0  0
  1  5  1  0
  5  6  2  0
  6  8  1  0
  8 10  2  0
 10 12  1  0
 12  5  1  0
  1  2  1  0
  1  3  1  0
  1  4  1  0
  6  7  1  0
  8  9  1  0
 10 11  1  0
 12 13  1  0
 14 18  1  0
 18 19  2  0
 18 20  1  0
 20 21  1  0
 21 24  1  0
 24 27  1  0
 27 30  1  0
 30 20  1  0
 14 15  1  0
 14 16  1  0
 14 17  1  0
 21 22  1  0
 21 23  1  0
 24 25  1  0
 24 26  1  0
 27 28  1  0
 27 29  1  0
 30 31  1  0
 30 32  1  0
M  CHG  1   8   1
M  END
>  <PDB_ID>  (42) 
pdb1tp9

>  <RESIDUE_NAME>  (42) 
HIP   PRO

>  <FRAG_NAME>  (42) 
MIMM   N1PA

>  <FRAG_ATOM_NUM>  (42) 
fragi: 13  fragj: 19

>  <atom.prop.CHAIN_ID>  (42) 
A A A A A A A A A A A A A Z Z Z Z Z Z Z Z Z Z Z Z Z Z Z Z Z Z Z

>  <atom.prop.IS_HEAVY_ATOM>  (42) 
1 0 0 0 1 1 0 1 0 1 0 1 0 1 0 0 0 1 1 1 1 0 0 1 0 0 1 0 0 1 0 0

>  <DIFUSE_FUNC_ATOM>  (42) 
n/a

>  <FINAL_SINGLE_POINT_ENERGY>  (42) 
0

>  <NONCOV_INTER_ENERGY_QM>  (42) 
0

>  <FF_Energy>  (42) 
-16.79

>  <QM_Energy>  (42) 
-25.81

>  <Index>  (42) 
330

$$$$
MIMM-pdb1v6t-A-HIP-62:N1PA-pdb1v6t-A-PRO-110
     RDKit          3D

 32 32  0  0  0  0  0  0  0  0999 V2000
   -0.6660    2.7418   -0.0975 C   0  0  0  0  0  0  0  0  0  0  0  0
   -0.9814    2.9106   -1.0412 H   0  0  0  0  0  0  0  0  0  0  0  0
    0.1199    3.3478    0.0822 H   0  0  0  0  0  0  0  0  0  0  0  0
   -1.4701    2.9971    0.5925 H   0  0  0  0  0  0  0  0  0  0  0  0
   -0.1942    1.3212   -0.0070 C   0  0  0  0  0  0  0  0  0  0  0  0
    1.0554    0.8001   -0.0000 C   0  0  0  0  0  0  0  0  0  0  0  0
    1.9109    1.3125    0.0043 H   0  0  0  0  0  0  0  0  0  0  0  0
    0.9269   -0.5667    0.0012 N   0  0  0  0  0  4  0  0  0  0  0  0
    1.6840   -1.2231    0.0002 H   0  0  0  0  0  0  0  0  0  0  0  0
   -0.3565   -0.8765    0.0025 C   0  0  0  0  0  0  0  0  0  0  0  0
   -0.7328   -1.7990    0.0058 H   0  0  0  0  0  0  0  0  0  0  0  0
   -1.0554    0.2444   -0.0000 N   0  0  0  0  0  0  0  0  0  0  0  0
   -2.0542    0.3058    0.0023 H   0  0  0  0  0  0  0  0  0  0  0  0
   -5.6041   -0.0798    0.0939 C   0  0  0  0  0  0  0  0  0  0  0  0
   -6.3687   -0.6773    0.3157 H   0  0  0  0  0  0  0  0  0  0  0  0
   -5.9584    0.9494    0.0347 H   0  0  0  0  0  0  0  0  0  0  0  0
   -5.1260   -0.3844   -0.8370 H   0  0  0  0  0  0  0  0  0  0  0  0
   -4.5807   -0.1513    1.2174 C   0  0  0  0  0  0  0  0  0  0  0  0
   -3.4766    0.3728    1.0818 O   0  0  0  0  0  0  0  0  0  0  0  0
   -4.9352   -0.7916    2.3447 N   0  0  0  0  0  0  0  0  0  0  0  0
   -4.0041   -0.9051    3.4732 C   0  0  0  0  0  0  0  0  0  0  0  0
   -3.7919    0.0006    3.8510 H   0  0  0  0  0  0  0  0  0  0  0  0
   -3.0949   -1.4221    3.1664 H   0  0  0  0  0  0  0  0  0  0  0  0
   -4.8058   -1.6990    4.5028 C   0  0  0  0  0  0  0  0  0  0  0  0
   -4.6735   -2.6785    4.3806 H   0  0  0  0  0  0  0  0  0  0  0  0
   -4.5611   -1.4318    5.4298 H   0  0  0  0  0  0  0  0  0  0  0  0
   -6.2279   -1.3113    4.1930 C   0  0  0  0  0  0  0  0  0  0  0  0
   -6.8590   -1.9612    4.5854 H   0  0  0  0  0  0  0  0  0  0  0  0
   -6.4128   -0.3928    4.5058 H   0  0  0  0  0  0  0  0  0  0  0  0
   -6.2395   -1.3854    2.6830 C   0  0  0  0  0  0  0  0  0  0  0  0
   -6.2918   -2.3255    2.3677 H   0  0  0  0  0  0  0  0  0  0  0  0
   -6.9824   -0.8471    2.2997 H   0  0  0  0  0  0  0  0  0  0  0  0
  1  5  1  0
  5  6  2  0
  6  8  1  0
  8 10  2  0
 10 12  1  0
 12  5  1  0
  1  2  1  0
  1  3  1  0
  1  4  1  0
  6  7  1  0
  8  9  1  0
 10 11  1  0
 12 13  1  0
 14 18  1  0
 18 19  2  0
 18 20  1  0
 20 21  1  0
 21 24  1  0
 24 27  1  0
 27 30  1  0
 30 20  1  0
 14 15  1  0
 14 16  1  0
 14 17  1  0
 21 22  1  0
 21 23  1  0
 24 25  1  0
 24 26  1  0
 27 28  1  0
 27 29  1  0
 30 31  1  0
 30 32  1  0
M  CHG  1   8   1
M  END
>  <PDB_ID>  (43) 
pdb1v6t

>  <RESIDUE_NAME>  (43) 
HIP   PRO

>  <FRAG_NAME>  (43) 
MIMM   N1PA

>  <FRAG_ATOM_NUM>  (43) 
fragi: 13  fragj: 19

>  <atom.prop.CHAIN_ID>  (43) 
A A A A A A A A A A A A A Z Z Z Z Z Z Z Z Z Z Z Z Z Z Z Z Z Z Z

>  <atom.prop.IS_HEAVY_ATOM>  (43) 
1 0 0 0 1 1 0 1 0 1 0 1 0 1 0 0 0 1 1 1 1 0 0 1 0 0 1 0 0 1 0 0

>  <DIFUSE_FUNC_ATOM>  (43) 
n/a

>  <FINAL_SINGLE_POINT_ENERGY>  (43) 
0

>  <NONCOV_INTER_ENERGY_QM>  (43) 
0

>  <FF_Energy>  (43) 
-15.51

>  <QM_Energy>  (43) 
-24.52

>  <Index>  (43) 
336

$$$$
MIMM-pdb1vzo-A-HIP-190:N1PA-pdb1vzo-A-PRO-332
     RDKit          3D

 32 32  0  0  0  0  0  0  0  0999 V2000
   -0.6735    2.7296   -0.0248 C   0  0  0  0  0  0  0  0  0  0  0  0
    0.0685    3.3325    0.2709 H   0  0  0  0  0  0  0  0  0  0  0  0
   -1.4478    2.8258    0.6014 H   0  0  0  0  0  0  0  0  0  0  0  0
   -0.9924    3.0306   -1.0227 H   0  0  0  0  0  0  0  0  0  0  0  0
   -0.1925    1.3195    0.0207 C   0  0  0  0  0  0  0  0  0  0  0  0
    1.0579    0.7996    0.0000 C   0  0  0  0  0  0  0  0  0  0  0  0
    1.9123    1.3115   -0.0073 H   0  0  0  0  0  0  0  0  0  0  0  0
    0.9271   -0.5676   -0.0076 N   0  0  0  0  0  4  0  0  0  0  0  0
    1.6836   -1.2245   -0.0130 H   0  0  0  0  0  0  0  0  0  0  0  0
   -0.3580   -0.8770   -0.0084 C   0  0  0  0  0  0  0  0  0  0  0  0
   -0.7346   -1.7977   -0.0132 H   0  0  0  0  0  0  0  0  0  0  0  0
   -1.0579    0.2463   -0.0000 N   0  0  0  0  0  0  0  0  0  0  0  0
   -2.0543    0.3083   -0.0077 H   0  0  0  0  0  0  0  0  0  0  0  0
   -0.7299   -5.8953    1.5311 C   0  0  0  0  0  0  0  0  0  0  0  0
   -0.5196   -6.8616    1.4148 H   0  0  0  0  0  0  0  0  0  0  0  0
   -0.3070   -5.5621    2.4790 H   0  0  0  0  0  0  0  0  0  0  0  0
   -1.8117   -5.7645    1.5074 H   0  0  0  0  0  0  0  0  0  0  0  0
   -0.0411   -5.1243    0.3992 C   0  0  0  0  0  0  0  0  0  0  0  0
    0.0445   -3.8977    0.4484 O   0  0  0  0  0  0  0  0  0  0  0  0
    0.4761   -5.8315   -0.6063 N   0  0  0  0  0  0  0  0  0  0  0  0
    1.1271   -5.1646   -1.7440 C   0  0  0  0  0  0  0  0  0  0  0  0
    1.9095   -4.6165   -1.4359 H   0  0  0  0  0  0  0  0  0  0  0  0
    0.4130   -4.5463   -2.2878 H   0  0  0  0  0  0  0  0  0  0  0  0
    1.6148   -6.3355   -2.6055 C   0  0  0  0  0  0  0  0  0  0  0  0
    0.9800   -6.5036   -3.3643 H   0  0  0  0  0  0  0  0  0  0  0  0
    2.5255   -6.1446   -2.9795 H   0  0  0  0  0  0  0  0  0  0  0  0
    1.6533   -7.5040   -1.6720 C   0  0  0  0  0  0  0  0  0  0  0  0
    1.5602   -8.3638   -2.1823 H   0  0  0  0  0  0  0  0  0  0  0  0
    2.5218   -7.5210   -1.1679 H   0  0  0  0  0  0  0  0  0  0  0  0
    0.4940   -7.3026   -0.7400 C   0  0  0  0  0  0  0  0  0  0  0  0
   -0.3570   -7.6266   -1.1364 H   0  0  0  0  0  0  0  0  0  0  0  0
    0.6527   -7.7313    0.1428 H   0  0  0  0  0  0  0  0  0  0  0  0
  1  5  1  0
  5  6  2  0
  6  8  1  0
  8 10  2  0
 10 12  1  0
 12  5  1  0
  1  2  1  0
  1  3  1  0
  1  4  1  0
  6  7  1  0
  8  9  1  0
 10 11  1  0
 12 13  1  0
 14 18  1  0
 18 19  2  0
 18 20  1  0
 20 21  1  0
 21 24  1  0
 24 27  1  0
 27 30  1  0
 30 20  1  0
 14 15  1  0
 14 16  1  0
 14 17  1  0
 21 22  1  0
 21 23  1  0
 24 25  1  0
 24 26  1  0
 27 28  1  0
 27 29  1  0
 30 31  1  0
 30 32  1  0
M  CHG  1   8   1
M  END
>  <PDB_ID>  (44) 
pdb1vzo

>  <RESIDUE_NAME>  (44) 
HIP   PRO

>  <FRAG_NAME>  (44) 
MIMM   N1PA

>  <FRAG_ATOM_NUM>  (44) 
fragi: 13  fragj: 19

>  <atom.prop.CHAIN_ID>  (44) 
A A A A A A A A A A A A A Z Z Z Z Z Z Z Z Z Z Z Z Z Z Z Z Z Z Z

>  <atom.prop.IS_HEAVY_ATOM>  (44) 
1 0 0 0 1 1 0 1 0 1 0 1 0 1 0 0 0 1 1 1 1 0 0 1 0 0 1 0 0 1 0 0

>  <DIFUSE_FUNC_ATOM>  (44) 
n/a

>  <FINAL_SINGLE_POINT_ENERGY>  (44) 
0

>  <NONCOV_INTER_ENERGY_QM>  (44) 
0

>  <FF_Energy>  (44) 
-11.4

>  <QM_Energy>  (44) 
-19.9

>  <Index>  (44) 
354

$$$$
MIMM-pdb1vrg-E-HIP-294:N1PA-pdb1vrg-E-PRO-260
     RDKit          3D

 32 32  0  0  0  0  0  0  0  0999 V2000
   -0.6634    2.7396    0.0230 C   0  0  0  0  0  0  0  0  0  0  0  0
   -1.6707    2.7355    0.0907 H   0  0  0  0  0  0  0  0  0  0  0  0
   -0.4112    3.1774   -0.8511 H   0  0  0  0  0  0  0  0  0  0  0  0
   -0.2546    3.3277    0.8446 H   0  0  0  0  0  0  0  0  0  0  0  0
   -0.1920    1.3195   -0.0129 C   0  0  0  0  0  0  0  0  0  0  0  0
    1.0582    0.7970    0.0000 C   0  0  0  0  0  0  0  0  0  0  0  0
    1.9133    1.3099    0.0045 H   0  0  0  0  0  0  0  0  0  0  0  0
    0.9265   -0.5668    0.0070 N   0  0  0  0  0  4  0  0  0  0  0  0
    1.6822   -1.2260    0.0128 H   0  0  0  0  0  0  0  0  0  0  0  0
   -0.3577   -0.8744    0.0042 C   0  0  0  0  0  0  0  0  0  0  0  0
   -0.7346   -1.7964    0.0059 H   0  0  0  0  0  0  0  0  0  0  0  0
   -1.0582    0.2467    0.0000 N   0  0  0  0  0  0  0  0  0  0  0  0
   -2.0543    0.3092    0.0042 H   0  0  0  0  0  0  0  0  0  0  0  0
   -2.3622   -4.9478   -1.1821 C   0  0  0  0  0  0  0  0  0  0  0  0
   -1.6507   -5.4641   -1.6729 H   0  0  0  0  0  0  0  0  0  0  0  0
   -3.1936   -5.6318   -1.0120 H   0  0  0  0  0  0  0  0  0  0  0  0
   -2.7264   -4.1155   -1.7843 H   0  0  0  0  0  0  0  0  0  0  0  0
   -1.7304   -4.4681    0.1430 C   0  0  0  0  0  0  0  0  0  0  0  0
   -1.7083   -3.2648    0.4569 O   0  0  0  0  0  0  0  0  0  0  0  0
   -1.2324   -5.4228    0.9400 N   0  0  0  0  0  0  0  0  0  0  0  0
   -0.7848   -5.0377    2.2814 C   0  0  0  0  0  0  0  0  0  0  0  0
   -1.5524   -4.6353    2.8136 H   0  0  0  0  0  0  0  0  0  0  0  0
    0.0670   -4.3577    2.2805 H   0  0  0  0  0  0  0  0  0  0  0  0
   -0.3982   -6.3809    2.9409 C   0  0  0  0  0  0  0  0  0  0  0  0
    0.5938   -6.3939    3.1391 H   0  0  0  0  0  0  0  0  0  0  0  0
   -0.8876   -6.4872    3.8191 H   0  0  0  0  0  0  0  0  0  0  0  0
   -0.7713   -7.4458    1.9828 C   0  0  0  0  0  0  0  0  0  0  0  0
   -0.0173   -8.1446    1.9229 H   0  0  0  0  0  0  0  0  0  0  0  0
   -1.5878   -7.9642    2.3349 H   0  0  0  0  0  0  0  0  0  0  0  0
   -1.0516   -6.8573    0.6589 C   0  0  0  0  0  0  0  0  0  0  0  0
   -0.2893   -6.9890    0.0159 H   0  0  0  0  0  0  0  0  0  0  0  0
   -1.8873   -7.2357    0.2441 H   0  0  0  0  0  0  0  0  0  0  0  0
  1  5  1  0
  5  6  2  0
  6  8  1  0
  8 10  2  0
 10 12  1  0
 12  5  1  0
  1  2  1  0
  1  3  1  0
  1  4  1  0
  6  7  1  0
  8  9  1  0
 10 11  1  0
 12 13  1  0
 14 18  1  0
 18 19  2  0
 18 20  1  0
 20 21  1  0
 21 24  1  0
 24 27  1  0
 27 30  1  0
 30 20  1  0
 14 15  1  0
 14 16  1  0
 14 17  1  0
 21 22  1  0
 21 23  1  0
 24 25  1  0
 24 26  1  0
 27 28  1  0
 27 29  1  0
 30 31  1  0
 30 32  1  0
M  CHG  1   8   1
M  END
>  <PDB_ID>  (45) 
pdb1vrg

>  <RESIDUE_NAME>  (45) 
HIP   PRO

>  <FRAG_NAME>  (45) 
MIMM   N1PA

>  <FRAG_ATOM_NUM>  (45) 
fragi: 13  fragj: 19

>  <atom.prop.CHAIN_ID>  (45) 
A A A A A A A A A A A A A Z Z Z Z Z Z Z Z Z Z Z Z Z Z Z Z Z Z Z

>  <atom.prop.IS_HEAVY_ATOM>  (45) 
1 0 0 0 1 1 0 1 0 1 0 1 0 1 0 0 0 1 1 1 1 0 0 1 0 0 1 0 0 1 0 0

>  <DIFUSE_FUNC_ATOM>  (45) 
n/a

>  <FINAL_SINGLE_POINT_ENERGY>  (45) 
0

>  <NONCOV_INTER_ENERGY_QM>  (45) 
0

>  <FF_Energy>  (45) 
19.3

>  <QM_Energy>  (45) 
-18.88

>  <Index>  (45) 
360

$$$$
MIMM-pdb3aos-A-HIP-141:N1PA-pdb3aos-A-PRO-216
     RDKit          3D

 32 32  0  0  0  0  0  0  0  0999 V2000
   -0.6782    2.7280   -0.0126 C   0  0  0  0  0  0  0  0  0  0  0  0
   -0.0120    3.2998    0.4773 H   0  0  0  0  0  0  0  0  0  0  0  0
   -1.5574    2.7720    0.4736 H   0  0  0  0  0  0  0  0  0  0  0  0
   -0.8121    3.1255   -1.0187 H   0  0  0  0  0  0  0  0  0  0  0  0
   -0.1971    1.3169    0.0079 C   0  0  0  0  0  0  0  0  0  0  0  0
    1.0533    0.8021    0.0000 C   0  0  0  0  0  0  0  0  0  0  0  0
    1.9070    1.3165   -0.0046 H   0  0  0  0  0  0  0  0  0  0  0  0
    0.9272   -0.5646   -0.0001 N   0  0  0  0  0  4  0  0  0  0  0  0
    1.6857   -1.2191    0.0012 H   0  0  0  0  0  0  0  0  0  0  0  0
   -0.3544   -0.8751   -0.0041 C   0  0  0  0  0  0  0  0  0  0  0  0
   -0.7301   -1.7979   -0.0078 H   0  0  0  0  0  0  0  0  0  0  0  0
   -1.0533    0.2435   -0.0000 N   0  0  0  0  0  0  0  0  0  0  0  0
   -2.0533    0.3018   -0.0031 H   0  0  0  0  0  0  0  0  0  0  0  0
   -4.2428   -2.5307   -1.0941 C   0  0  0  0  0  0  0  0  0  0  0  0
   -3.8838   -3.4542   -1.3378 H   0  0  0  0  0  0  0  0  0  0  0  0
   -4.1638   -2.4075   -0.0139 H   0  0  0  0  0  0  0  0  0  0  0  0
   -5.2914   -2.5239   -1.3915 H   0  0  0  0  0  0  0  0  0  0  0  0
   -3.4729   -1.4925   -1.9113 C   0  0  0  0  0  0  0  0  0  0  0  0
   -3.4799   -0.2976   -1.5700 O   0  0  0  0  0  0  0  0  0  0  0  0
   -2.8113   -1.9472   -3.0033 N   0  0  0  0  0  0  0  0  0  0  0  0
   -2.1978   -1.0289   -3.9621 C   0  0  0  0  0  0  0  0  0  0  0  0
   -1.4002   -0.5761   -3.5654 H   0  0  0  0  0  0  0  0  0  0  0  0
   -2.9404   -0.2989   -4.2842 H   0  0  0  0  0  0  0  0  0  0  0  0
   -1.8235   -1.9474   -5.1290 C   0  0  0  0  0  0  0  0  0  0  0  0
   -2.5664   -1.9831   -5.8013 H   0  0  0  0  0  0  0  0  0  0  0  0
   -0.9898   -1.6234   -5.5791 H   0  0  0  0  0  0  0  0  0  0  0  0
   -1.6103   -3.2749   -4.4933 C   0  0  0  0  0  0  0  0  0  0  0  0
   -1.7301   -4.0127   -5.1644 H   0  0  0  0  0  0  0  0  0  0  0  0
   -0.6852   -3.3376   -4.1075 H   0  0  0  0  0  0  0  0  0  0  0  0
   -2.6470   -3.3545   -3.4176 C   0  0  0  0  0  0  0  0  0  0  0  0
   -3.5126   -3.7188   -3.7627 H   0  0  0  0  0  0  0  0  0  0  0  0
   -2.3383   -3.9110   -2.6450 H   0  0  0  0  0  0  0  0  0  0  0  0
  1  5  1  0
  5  6  2  0
  6  8  1  0
  8 10  2  0
 10 12  1  0
 12  5  1  0
  1  2  1  0
  1  3  1  0
  1  4  1  0
  6  7  1  0
  8  9  1  0
 10 11  1  0
 12 13  1  0
 14 18  1  0
 18 19  2  0
 18 20  1  0
 20 21  1  0
 21 24  1  0
 24 27  1  0
 27 30  1  0
 30 20  1  0
 14 15  1  0
 14 16  1  0
 14 17  1  0
 21 22  1  0
 21 23  1  0
 24 25  1  0
 24 26  1  0
 27 28  1  0
 27 29  1  0
 30 31  1  0
 30 32  1  0
M  CHG  1   8   1
M  END
>  <PDB_ID>  (46) 
pdb3aos

>  <RESIDUE_NAME>  (46) 
HIP   PRO

>  <FRAG_NAME>  (46) 
MIMM   N1PA

>  <FRAG_ATOM_NUM>  (46) 
fragi: 13  fragj: 19

>  <atom.prop.CHAIN_ID>  (46) 
A A A A A A A A A A A A A Z Z Z Z Z Z Z Z Z Z Z Z Z Z Z Z Z Z Z

>  <atom.prop.IS_HEAVY_ATOM>  (46) 
1 0 0 0 1 1 0 1 0 1 0 1 0 1 0 0 0 1 1 1 1 0 0 1 0 0 1 0 0 1 0 0

>  <DIFUSE_FUNC_ATOM>  (46) 
n/a

>  <FINAL_SINGLE_POINT_ENERGY>  (46) 
0

>  <NONCOV_INTER_ENERGY_QM>  (46) 
0

>  <FF_Energy>  (46) 
-11.28

>  <QM_Energy>  (46) 
-17.1

>  <Index>  (46) 
377

$$$$
MIMM-pdb3ap1-A-HIP-244:N1PA-pdb3ap1-A-PRO-337
     RDKit          3D

 32 32  0  0  0  0  0  0  0  0999 V2000
   -0.6786    2.7474    0.0050 C   0  0  0  0  0  0  0  0  0  0  0  0
    0.1171    3.3492    0.1271 H   0  0  0  0  0  0  0  0  0  0  0  0
   -1.2972    2.8711    0.7877 H   0  0  0  0  0  0  0  0  0  0  0  0
   -1.2025    3.0382   -0.9056 H   0  0  0  0  0  0  0  0  0  0  0  0
   -0.1972    1.3225    0.0047 C   0  0  0  0  0  0  0  0  0  0  0  0
    1.0545    0.8058    0.0000 C   0  0  0  0  0  0  0  0  0  0  0  0
    1.9080    1.3171    0.0045 H   0  0  0  0  0  0  0  0  0  0  0  0
    0.9262   -0.5662   -0.0106 N   0  0  0  0  0  4  0  0  0  0  0  0
    1.6873   -1.2185   -0.0247 H   0  0  0  0  0  0  0  0  0  0  0  0
   -0.3539   -0.8796   -0.0010 C   0  0  0  0  0  0  0  0  0  0  0  0
   -0.7290   -1.8023    0.0059 H   0  0  0  0  0  0  0  0  0  0  0  0
   -1.0545    0.2403   -0.0000 N   0  0  0  0  0  0  0  0  0  0  0  0
   -2.0543    0.2995   -0.0030 H   0  0  0  0  0  0  0  0  0  0  0  0
    0.5342   -4.9290   -2.9364 C   0  0  0  0  0  0  0  0  0  0  0  0
    0.7221   -5.1822   -3.8922 H   0  0  0  0  0  0  0  0  0  0  0  0
    1.4904   -4.6659   -2.4840 H   0  0  0  0  0  0  0  0  0  0  0  0
    0.0802   -5.7747   -2.4200 H   0  0  0  0  0  0  0  0  0  0  0  0
   -0.4070   -3.7336   -2.9639 C   0  0  0  0  0  0  0  0  0  0  0  0
   -0.4351   -2.9398   -2.0310 O   0  0  0  0  0  0  0  0  0  0  0  0
   -1.1610   -3.5947   -4.0545 N   0  0  0  0  0  0  0  0  0  0  0  0
   -1.9879   -2.4088   -4.2112 C   0  0  0  0  0  0  0  0  0  0  0  0
   -1.4718   -1.5732   -3.9537 H   0  0  0  0  0  0  0  0  0  0  0  0
   -2.9187   -2.4717   -3.6474 H   0  0  0  0  0  0  0  0  0  0  0  0
   -2.2699   -2.3772   -5.7153 C   0  0  0  0  0  0  0  0  0  0  0  0
   -3.1979   -2.0538   -5.9015 H   0  0  0  0  0  0  0  0  0  0  0  0
   -1.6125   -1.7975   -6.1936 H   0  0  0  0  0  0  0  0  0  0  0  0
   -2.1189   -3.8263   -6.1650 C   0  0  0  0  0  0  0  0  0  0  0  0
   -3.0042   -4.2959   -6.0789 H   0  0  0  0  0  0  0  0  0  0  0  0
   -1.8388   -3.8473   -7.1315 H   0  0  0  0  0  0  0  0  0  0  0  0
   -1.0893   -4.4211   -5.2785 C   0  0  0  0  0  0  0  0  0  0  0  0
   -1.2887   -5.3795   -5.0579 H   0  0  0  0  0  0  0  0  0  0  0  0
   -0.1685   -4.3657   -5.6780 H   0  0  0  0  0  0  0  0  0  0  0  0
  1  5  1  0
  5  6  2  0
  6  8  1  0
  8 10  2  0
 10 12  1  0
 12  5  1  0
  1  2  1  0
  1  3  1  0
  1  4  1  0
  6  7  1  0
  8  9  1  0
 10 11  1  0
 12 13  1  0
 14 18  1  0
 18 19  2  0
 18 20  1  0
 20 21  1  0
 21 24  1  0
 24 27  1  0
 27 30  1  0
 30 20  1  0
 14 15  1  0
 14 16  1  0
 14 17  1  0
 21 22  1  0
 21 23  1  0
 24 25  1  0
 24 26  1  0
 27 28  1  0
 27 29  1  0
 30 31  1  0
 30 32  1  0
M  CHG  1   8   1
M  END
>  <PDB_ID>  (47) 
pdb3ap1

>  <RESIDUE_NAME>  (47) 
HIP   PRO

>  <FRAG_NAME>  (47) 
MIMM   N1PA

>  <FRAG_ATOM_NUM>  (47) 
fragi: 13  fragj: 19

>  <atom.prop.CHAIN_ID>  (47) 
A A A A A A A A A A A A A Z Z Z Z Z Z Z Z Z Z Z Z Z Z Z Z Z Z Z

>  <atom.prop.IS_HEAVY_ATOM>  (47) 
1 0 0 0 1 1 0 1 0 1 0 1 0 1 0 0 0 1 1 1 1 0 0 1 0 0 1 0 0 1 0 0

>  <DIFUSE_FUNC_ATOM>  (47) 
n/a

>  <FINAL_SINGLE_POINT_ENERGY>  (47) 
0

>  <NONCOV_INTER_ENERGY_QM>  (47) 
0

>  <FF_Energy>  (47) 
-11.2

>  <QM_Energy>  (47) 
-18.63

>  <Index>  (47) 
378

$$$$
MIMM-pdb3aik-C-HIP-273:N1PA-pdb3aik-C-PRO-178
     RDKit          3D

 32 32  0  0  0  0  0  0  0  0999 V2000
   -0.6852    2.7318   -0.1287 C   0  0  0  0  0  0  0  0  0  0  0  0
   -1.5030    2.7536   -0.7159 H   0  0  0  0  0  0  0  0  0  0  0  0
    0.0314    3.2907   -0.5617 H   0  0  0  0  0  0  0  0  0  0  0  0
   -0.9336    3.1650    0.8402 H   0  0  0  0  0  0  0  0  0  0  0  0
   -0.1981    1.3192   -0.0535 C   0  0  0  0  0  0  0  0  0  0  0  0
    1.0573    0.8034    0.0000 C   0  0  0  0  0  0  0  0  0  0  0  0
    1.9072    1.3172    0.0291 H   0  0  0  0  0  0  0  0  0  0  0  0
    0.9298   -0.5675    0.0083 N   0  0  0  0  0  4  0  0  0  0  0  0
    1.6866   -1.2216    0.0041 H   0  0  0  0  0  0  0  0  0  0  0  0
   -0.3558   -0.8786    0.0214 C   0  0  0  0  0  0  0  0  0  0  0  0
   -0.7317   -1.7996    0.0452 H   0  0  0  0  0  0  0  0  0  0  0  0
   -1.0573    0.2444   -0.0000 N   0  0  0  0  0  0  0  0  0  0  0  0
   -2.0555    0.3028    0.0192 H   0  0  0  0  0  0  0  0  0  0  0  0
   -3.8377   -2.5819    3.1090 C   0  0  0  0  0  0  0  0  0  0  0  0
   -4.7975   -2.5252    2.8211 H   0  0  0  0  0  0  0  0  0  0  0  0
   -3.8148   -2.8581    4.1631 H   0  0  0  0  0  0  0  0  0  0  0  0
   -3.5025   -1.5681    2.8898 H   0  0  0  0  0  0  0  0  0  0  0  0
   -3.1402   -3.6528    2.2185 C   0  0  0  0  0  0  0  0  0  0  0  0
   -2.1693   -3.4001    1.5784 O   0  0  0  0  0  0  0  0  0  0  0  0
   -3.6772   -4.8703    2.2527 N   0  0  0  0  0  0  0  0  0  0  0  0
   -3.1019   -6.0034    1.5549 C   0  0  0  0  0  0  0  0  0  0  0  0
   -2.1227   -6.1223    1.8037 H   0  0  0  0  0  0  0  0  0  0  0  0
   -3.2132   -5.9354    0.4727 H   0  0  0  0  0  0  0  0  0  0  0  0
   -3.9525   -7.1704    2.0539 C   0  0  0  0  0  0  0  0  0  0  0  0
   -3.9891   -7.8866    1.3363 H   0  0  0  0  0  0  0  0  0  0  0  0
   -3.5093   -7.5827    2.8671 H   0  0  0  0  0  0  0  0  0  0  0  0
   -5.1937   -6.5922    2.3282 C   0  0  0  0  0  0  0  0  0  0  0  0
   -5.7984   -6.5568    1.4903 H   0  0  0  0  0  0  0  0  0  0  0  0
   -5.7353   -7.1450    3.0125 H   0  0  0  0  0  0  0  0  0  0  0  0
   -4.9636   -5.2445    2.8399 C   0  0  0  0  0  0  0  0  0  0  0  0
   -5.6778   -4.5951    2.5505 H   0  0  0  0  0  0  0  0  0  0  0  0
   -4.9060   -5.2192    3.8467 H   0  0  0  0  0  0  0  0  0  0  0  0
  1  5  1  0
  5  6  2  0
  6  8  1  0
  8 10  2  0
 10 12  1  0
 12  5  1  0
  1  2  1  0
  1  3  1  0
  1  4  1  0
  6  7  1  0
  8  9  1  0
 10 11  1  0
 12 13  1  0
 14 18  1  0
 18 19  2  0
 18 20  1  0
 20 21  1  0
 21 24  1  0
 24 27  1  0
 27 30  1  0
 30 20  1  0
 14 15  1  0
 14 16  1  0
 14 17  1  0
 21 22  1  0
 21 23  1  0
 24 25  1  0
 24 26  1  0
 27 28  1  0
 27 29  1  0
 30 31  1  0
 30 32  1  0
M  CHG  1   8   1
M  END
>  <PDB_ID>  (48) 
pdb3aik

>  <RESIDUE_NAME>  (48) 
HIP   PRO

>  <FRAG_NAME>  (48) 
MIMM   N1PA

>  <FRAG_ATOM_NUM>  (48) 
fragi: 13  fragj: 19

>  <atom.prop.CHAIN_ID>  (48) 
A A A A A A A A A A A A A Z Z Z Z Z Z Z Z Z Z Z Z Z Z Z Z Z Z Z

>  <atom.prop.IS_HEAVY_ATOM>  (48) 
1 0 0 0 1 1 0 1 0 1 0 1 0 1 0 0 0 1 1 1 1 0 0 1 0 0 1 0 0 1 0 0

>  <DIFUSE_FUNC_ATOM>  (48) 
n/a

>  <FINAL_SINGLE_POINT_ENERGY>  (48) 
0

>  <NONCOV_INTER_ENERGY_QM>  (48) 
0

>  <FF_Energy>  (48) 
-9.4

>  <QM_Energy>  (48) 
-14.54

>  <Index>  (48) 
393

$$$$
MIMM-pdb3aik-D-HIP-273:N1PA-pdb3aik-D-PRO-178
     RDKit          3D

 32 32  0  0  0  0  0  0  0  0999 V2000
   -0.6718    2.7366   -0.0817 C   0  0  0  0  0  0  0  0  0  0  0  0
   -1.4404    2.8159   -0.7235 H   0  0  0  0  0  0  0  0  0  0  0  0
    0.0776    3.3244   -0.4017 H   0  0  0  0  0  0  0  0  0  0  0  0
   -0.9946    3.0799    0.9013 H   0  0  0  0  0  0  0  0  0  0  0  0
   -0.1934    1.3171   -0.0914 C   0  0  0  0  0  0  0  0  0  0  0  0
    1.0565    0.7989    0.0000 C   0  0  0  0  0  0  0  0  0  0  0  0
    1.9078    1.3138    0.0395 H   0  0  0  0  0  0  0  0  0  0  0  0
    0.9269   -0.5654    0.0295 N   0  0  0  0  0  4  0  0  0  0  0  0
    1.6838   -1.2237    0.0434 H   0  0  0  0  0  0  0  0  0  0  0  0
   -0.3569   -0.8761    0.0351 C   0  0  0  0  0  0  0  0  0  0  0  0
   -0.7335   -1.7966    0.0619 H   0  0  0  0  0  0  0  0  0  0  0  0
   -1.0565    0.2460    0.0000 N   0  0  0  0  0  0  0  0  0  0  0  0
   -2.0530    0.3095    0.0339 H   0  0  0  0  0  0  0  0  0  0  0  0
   -3.7599   -2.9444    2.7854 C   0  0  0  0  0  0  0  0  0  0  0  0
   -4.7243   -2.8550    2.4895 H   0  0  0  0  0  0  0  0  0  0  0  0
   -3.7528   -3.2719    3.8250 H   0  0  0  0  0  0  0  0  0  0  0  0
   -3.3903   -1.9298    2.6364 H   0  0  0  0  0  0  0  0  0  0  0  0
   -3.0705   -3.9383    1.8551 C   0  0  0  0  0  0  0  0  0  0  0  0
   -2.1109   -3.6424    1.2657 O   0  0  0  0  0  0  0  0  0  0  0  0
   -3.5623   -5.1468    1.8060 N   0  0  0  0  0  0  0  0  0  0  0  0
   -2.8705   -6.1822    1.0646 C   0  0  0  0  0  0  0  0  0  0  0  0
   -1.8971   -6.2502    1.3630 H   0  0  0  0  0  0  0  0  0  0  0  0
   -2.9281   -6.0517   -0.0160 H   0  0  0  0  0  0  0  0  0  0  0  0
   -3.6220   -7.4371    1.4733 C   0  0  0  0  0  0  0  0  0  0  0  0
   -3.5724   -8.1229    0.7296 H   0  0  0  0  0  0  0  0  0  0  0  0
   -3.1875   -7.8451    2.2914 H   0  0  0  0  0  0  0  0  0  0  0  0
   -4.9423   -6.9857    1.7179 C   0  0  0  0  0  0  0  0  0  0  0  0
   -5.4967   -6.9469    0.8569 H   0  0  0  0  0  0  0  0  0  0  0  0
   -5.4501   -7.6189    2.3443 H   0  0  0  0  0  0  0  0  0  0  0  0
   -4.8330   -5.6510    2.3169 C   0  0  0  0  0  0  0  0  0  0  0  0
   -5.5871   -5.0451    2.0365 H   0  0  0  0  0  0  0  0  0  0  0  0
   -4.8160   -5.6859    3.3252 H   0  0  0  0  0  0  0  0  0  0  0  0
  1  5  1  0
  5  6  2  0
  6  8  1  0
  8 10  2  0
 10 12  1  0
 12  5  1  0
  1  2  1  0
  1  3  1  0
  1  4  1  0
  6  7  1  0
  8  9  1  0
 10 11  1  0
 12 13  1  0
 14 18  1  0
 18 19  2  0
 18 20  1  0
 20 21  1  0
 21 24  1  0
 24 27  1  0
 27 30  1  0
 30 20  1  0
 14 15  1  0
 14 16  1  0
 14 17  1  0
 21 22  1  0
 21 23  1  0
 24 25  1  0
 24 26  1  0
 27 28  1  0
 27 29  1  0
 30 31  1  0
 30 32  1  0
M  CHG  1   8   1
M  END
>  <PDB_ID>  (49) 
pdb3aik

>  <RESIDUE_NAME>  (49) 
HIP   PRO

>  <FRAG_NAME>  (49) 
MIMM   N1PA

>  <FRAG_ATOM_NUM>  (49) 
fragi: 13  fragj: 19

>  <atom.prop.CHAIN_ID>  (49) 
A A A A A A A A A A A A A Z Z Z Z Z Z Z Z Z Z Z Z Z Z Z Z Z Z Z

>  <atom.prop.IS_HEAVY_ATOM>  (49) 
1 0 0 0 1 1 0 1 0 1 0 1 0 1 0 0 0 1 1 1 1 0 0 1 0 0 1 0 0 1 0 0

>  <DIFUSE_FUNC_ATOM>  (49) 
n/a

>  <FINAL_SINGLE_POINT_ENERGY>  (49) 
0

>  <NONCOV_INTER_ENERGY_QM>  (49) 
0

>  <FF_Energy>  (49) 
-9.07

>  <QM_Energy>  (49) 
-14.36

>  <Index>  (49) 
394

$$$$
MIMM-pdb1xhn-C-HIP-28:N1PA-pdb1xhn-C-PRO-60
     RDKit          3D

 32 32  0  0  0  0  0  0  0  0999 V2000
   -0.6974    2.7364    0.0241 C   0  0  0  0  0  0  0  0  0  0  0  0
   -1.2014    2.9103   -0.8228 H   0  0  0  0  0  0  0  0  0  0  0  0
    0.0941    3.3471    0.0708 H   0  0  0  0  0  0  0  0  0  0  0  0
   -1.3495    2.9291    0.8761 H   0  0  0  0  0  0  0  0  0  0  0  0
   -0.2002    1.3224   -0.0056 C   0  0  0  0  0  0  0  0  0  0  0  0
    1.0593    0.8041    0.0000 C   0  0  0  0  0  0  0  0  0  0  0  0
    1.9089    1.3179   -0.0027 H   0  0  0  0  0  0  0  0  0  0  0  0
    0.9324   -0.5697    0.0109 N   0  0  0  0  0  4  0  0  0  0  0  0
    1.6882   -1.2231    0.0239 H   0  0  0  0  0  0  0  0  0  0  0  0
   -0.3571   -0.8814    0.0003 C   0  0  0  0  0  0  0  0  0  0  0  0
   -0.7322   -1.8015   -0.0053 H   0  0  0  0  0  0  0  0  0  0  0  0
   -1.0593    0.2447   -0.0000 N   0  0  0  0  0  0  0  0  0  0  0  0
   -2.0578    0.3015    0.0023 H   0  0  0  0  0  0  0  0  0  0  0  0
   -1.4906   -5.7936    0.6728 C   0  0  0  0  0  0  0  0  0  0  0  0
   -1.6358   -5.8843    1.6684 H   0  0  0  0  0  0  0  0  0  0  0  0
   -2.3900   -5.4111    0.1902 H   0  0  0  0  0  0  0  0  0  0  0  0
   -1.3627   -6.7852    0.2386 H   0  0  0  0  0  0  0  0  0  0  0  0
   -0.2765   -4.9218    0.3791 C   0  0  0  0  0  0  0  0  0  0  0  0
   -0.3572   -4.1084   -0.5593 O   0  0  0  0  0  0  0  0  0  0  0  0
    0.8036   -5.0796    1.1596 N   0  0  0  0  0  0  0  0  0  0  0  0
    2.0560   -4.2995    1.0109 C   0  0  0  0  0  0  0  0  0  0  0  0
    2.0314   -3.4912    1.6675 H   0  0  0  0  0  0  0  0  0  0  0  0
    2.3500   -3.9663    0.0156 H   0  0  0  0  0  0  0  0  0  0  0  0
    3.1280   -5.2384    1.5849 C   0  0  0  0  0  0  0  0  0  0  0  0
    3.4399   -5.8852    0.8970 H   0  0  0  0  0  0  0  0  0  0  0  0
    3.8950   -4.7223    1.9491 H   0  0  0  0  0  0  0  0  0  0  0  0
    2.3929   -5.9601    2.6995 C   0  0  0  0  0  0  0  0  0  0  0  0
    2.7439   -6.8958    2.8042 H   0  0  0  0  0  0  0  0  0  0  0  0
    2.5088   -5.4725    3.5707 H   0  0  0  0  0  0  0  0  0  0  0  0
    0.8911   -5.9996    2.3119 C   0  0  0  0  0  0  0  0  0  0  0  0
    0.6252   -6.9232    2.0542 H   0  0  0  0  0  0  0  0  0  0  0  0
    0.3295   -5.6806    3.0704 H   0  0  0  0  0  0  0  0  0  0  0  0
  1  5  1  0
  5  6  2  0
  6  8  1  0
  8 10  2  0
 10 12  1  0
 12  5  1  0
  1  2  1  0
  1  3  1  0
  1  4  1  0
  6  7  1  0
  8  9  1  0
 10 11  1  0
 12 13  1  0
 14 18  1  0
 18 19  2  0
 18 20  1  0
 20 21  1  0
 21 24  1  0
 24 27  1  0
 27 30  1  0
 30 20  1  0
 14 15  1  0
 14 16  1  0
 14 17  1  0
 21 22  1  0
 21 23  1  0
 24 25  1  0
 24 26  1  0
 27 28  1  0
 27 29  1  0
 30 31  1  0
 30 32  1  0
M  CHG  1   8   1
M  END
>  <PDB_ID>  (50) 
pdb1xhn

>  <RESIDUE_NAME>  (50) 
HIP   PRO

>  <FRAG_NAME>  (50) 
MIMM   N1PA

>  <FRAG_ATOM_NUM>  (50) 
fragi: 13  fragj: 19

>  <atom.prop.CHAIN_ID>  (50) 
A A A A A A A A A A A A A Z Z Z Z Z Z Z Z Z Z Z Z Z Z Z Z Z Z Z

>  <atom.prop.IS_HEAVY_ATOM>  (50) 
1 0 0 0 1 1 0 1 0 1 0 1 0 1 0 0 0 1 1 1 1 0 0 1 0 0 1 0 0 1 0 0

>  <DIFUSE_FUNC_ATOM>  (50) 
n/a

>  <FINAL_SINGLE_POINT_ENERGY>  (50) 
0

>  <NONCOV_INTER_ENERGY_QM>  (50) 
0

>  <FF_Energy>  (50) 
-8.72

>  <QM_Energy>  (50) 
-15.51

>  <Index>  (50) 
400

$$$$
MIMM-pdb1xhn-D-HIP-28:N1PA-pdb1xhn-D-PRO-60
     RDKit          3D

 32 32  0  0  0  0  0  0  0  0999 V2000
   -0.6960    2.7263    0.0535 C   0  0  0  0  0  0  0  0  0  0  0  0
   -1.2374    2.9186   -0.7632 H   0  0  0  0  0  0  0  0  0  0  0  0
    0.0906    3.3407    0.0888 H   0  0  0  0  0  0  0  0  0  0  0  0
   -1.3136    2.8912    0.9363 H   0  0  0  0  0  0  0  0  0  0  0  0
   -0.1990    1.3201   -0.0239 C   0  0  0  0  0  0  0  0  0  0  0  0
    1.0567    0.8058   -0.0000 C   0  0  0  0  0  0  0  0  0  0  0  0
    1.9069    1.3185    0.0172 H   0  0  0  0  0  0  0  0  0  0  0  0
    0.9284   -0.5655   -0.0034 N   0  0  0  0  0  4  0  0  0  0  0  0
    1.6864   -1.2191   -0.0153 H   0  0  0  0  0  0  0  0  0  0  0  0
   -0.3560   -0.8775    0.0104 C   0  0  0  0  0  0  0  0  0  0  0  0
   -0.7294   -1.8013    0.0273 H   0  0  0  0  0  0  0  0  0  0  0  0
   -1.0567    0.2409    0.0000 N   0  0  0  0  0  0  0  0  0  0  0  0
   -2.0555    0.3000    0.0073 H   0  0  0  0  0  0  0  0  0  0  0  0
   -1.5980   -5.7510    0.5045 C   0  0  0  0  0  0  0  0  0  0  0  0
   -1.8850   -5.9344    1.4323 H   0  0  0  0  0  0  0  0  0  0  0  0
   -2.4033   -5.3065   -0.0802 H   0  0  0  0  0  0  0  0  0  0  0  0
   -1.3834   -6.6730   -0.0359 H   0  0  0  0  0  0  0  0  0  0  0  0
   -0.3919   -4.7629    0.4939 C   0  0  0  0  0  0  0  0  0  0  0  0
   -0.3686   -3.9050   -0.4238 O   0  0  0  0  0  0  0  0  0  0  0  0
    0.5276   -4.8642    1.4574 N   0  0  0  0  0  0  0  0  0  0  0  0
    1.6655   -3.9386    1.5828 C   0  0  0  0  0  0  0  0  0  0  0  0
    1.3659   -3.0712    2.0155 H   0  0  0  0  0  0  0  0  0  0  0  0
    2.1600   -3.7473    0.6304 H   0  0  0  0  0  0  0  0  0  0  0  0
    2.6054   -4.6486    2.5890 C   0  0  0  0  0  0  0  0  0  0  0  0
    3.2759   -5.2076    2.0908 H   0  0  0  0  0  0  0  0  0  0  0  0
    3.0988   -3.9645    3.1338 H   0  0  0  0  0  0  0  0  0  0  0  0
    1.7138   -5.4696    3.4154 C   0  0  0  0  0  0  0  0  0  0  0  0
    2.1911   -6.2804    3.7816 H   0  0  0  0  0  0  0  0  0  0  0  0
    1.3480   -4.9448    4.1976 H   0  0  0  0  0  0  0  0  0  0  0  0
    0.5704   -5.9095    2.5068 C   0  0  0  0  0  0  0  0  0  0  0  0
    0.7566   -6.8045    2.1041 H   0  0  0  0  0  0  0  0  0  0  0  0
   -0.2947   -5.9409    3.0076 H   0  0  0  0  0  0  0  0  0  0  0  0
  1  5  1  0
  5  6  2  0
  6  8  1  0
  8 10  2  0
 10 12  1  0
 12  5  1  0
  1  2  1  0
  1  3  1  0
  1  4  1  0
  6  7  1  0
  8  9  1  0
 10 11  1  0
 12 13  1  0
 14 18  1  0
 18 19  2  0
 18 20  1  0
 20 21  1  0
 21 24  1  0
 24 27  1  0
 27 30  1  0
 30 20  1  0
 14 15  1  0
 14 16  1  0
 14 17  1  0
 21 22  1  0
 21 23  1  0
 24 25  1  0
 24 26  1  0
 27 28  1  0
 27 29  1  0
 30 31  1  0
 30 32  1  0
M  CHG  1   8   1
M  END
>  <PDB_ID>  (51) 
pdb1xhn

>  <RESIDUE_NAME>  (51) 
HIP   PRO

>  <FRAG_NAME>  (51) 
MIMM   N1PA

>  <FRAG_ATOM_NUM>  (51) 
fragi: 13  fragj: 19

>  <atom.prop.CHAIN_ID>  (51) 
A A A A A A A A A A A A A Z Z Z Z Z Z Z Z Z Z Z Z Z Z Z Z Z Z Z

>  <atom.prop.IS_HEAVY_ATOM>  (51) 
1 0 0 0 1 1 0 1 0 1 0 1 0 1 0 0 0 1 1 1 1 0 0 1 0 0 1 0 0 1 0 0

>  <DIFUSE_FUNC_ATOM>  (51) 
n/a

>  <FINAL_SINGLE_POINT_ENERGY>  (51) 
0

>  <NONCOV_INTER_ENERGY_QM>  (51) 
0

>  <FF_Energy>  (51) 
-7.74

>  <QM_Energy>  (51) 
-17.46

>  <Index>  (51) 
401

$$$$
MIMM-pdb3ceu-B-HIP-54:N1PA-pdb3ceu-B-PRO-50
     RDKit          3D

 32 32  0  0  0  0  0  0  0  0999 V2000
   -0.6743    2.7372    0.0040 C   0  0  0  0  0  0  0  0  0  0  0  0
   -0.8643    3.0067    0.9528 H   0  0  0  0  0  0  0  0  0  0  0  0
   -1.5273    2.7857   -0.5232 H   0  0  0  0  0  0  0  0  0  0  0  0
    0.0454    3.4348   -0.4243 H   0  0  0  0  0  0  0  0  0  0  0  0
   -0.1976    1.3192    0.0013 C   0  0  0  0  0  0  0  0  0  0  0  0
    1.0549    0.8019    0.0000 C   0  0  0  0  0  0  0  0  0  0  0  0
    1.9081    1.3158    0.0004 H   0  0  0  0  0  0  0  0  0  0  0  0
    0.9275   -0.5660   -0.0000 N   0  0  0  0  0  4  0  0  0  0  0  0
    1.6865   -1.2206   -0.0006 H   0  0  0  0  0  0  0  0  0  0  0  0
   -0.3535   -0.8774   -0.0012 C   0  0  0  0  0  0  0  0  0  0  0  0
   -0.7299   -1.7989   -0.0012 H   0  0  0  0  0  0  0  0  0  0  0  0
   -1.0549    0.2438   -0.0000 N   0  0  0  0  0  0  0  0  0  0  0  0
   -2.0541    0.3009   -0.0006 H   0  0  0  0  0  0  0  0  0  0  0  0
    5.5282   -2.0930   -0.7837 C   0  0  0  0  0  0  0  0  0  0  0  0
    6.4835   -2.2157   -0.5011 H   0  0  0  0  0  0  0  0  0  0  0  0
    5.1659   -3.0713   -1.0992 H   0  0  0  0  0  0  0  0  0  0  0  0
    5.4504   -1.3819   -1.6061 H   0  0  0  0  0  0  0  0  0  0  0  0
    4.7718   -1.6074    0.4628 C   0  0  0  0  0  0  0  0  0  0  0  0
    3.5492   -1.7369    0.5521 O   0  0  0  0  0  0  0  0  0  0  0  0
    5.4997   -1.0522    1.4539 N   0  0  0  0  0  0  0  0  0  0  0  0
    4.9487   -0.5384    2.7197 C   0  0  0  0  0  0  0  0  0  0  0  0
    4.7841   -1.3184    3.3689 H   0  0  0  0  0  0  0  0  0  0  0  0
    4.0545    0.0785    2.6305 H   0  0  0  0  0  0  0  0  0  0  0  0
    6.1275    0.2261    3.3233 C   0  0  0  0  0  0  0  0  0  0  0  0
    6.1978    1.1347    2.9351 H   0  0  0  0  0  0  0  0  0  0  0  0
    6.0584    0.2654    4.3102 H   0  0  0  0  0  0  0  0  0  0  0  0
    7.2898   -0.6290    2.8999 C   0  0  0  0  0  0  0  0  0  0  0  0
    8.1405   -0.1325    2.9851 H   0  0  0  0  0  0  0  0  0  0  0  0
    7.3114   -1.4710    3.4162 H   0  0  0  0  0  0  0  0  0  0  0  0
    6.9664   -0.9000    1.4384 C   0  0  0  0  0  0  0  0  0  0  0  0
    7.2368   -0.1336    0.8632 H   0  0  0  0  0  0  0  0  0  0  0  0
    7.4062   -1.7364    1.1228 H   0  0  0  0  0  0  0  0  0  0  0  0
  1  5  1  0
  5  6  2  0
  6  8  1  0
  8 10  2  0
 10 12  1  0
 12  5  1  0
  1  2  1  0
  1  3  1  0
  1  4  1  0
  6  7  1  0
  8  9  1  0
 10 11  1  0
 12 13  1  0
 14 18  1  0
 18 19  2  0
 18 20  1  0
 20 21  1  0
 21 24  1  0
 24 27  1  0
 27 30  1  0
 30 20  1  0
 14 15  1  0
 14 16  1  0
 14 17  1  0
 21 22  1  0
 21 23  1  0
 24 25  1  0
 24 26  1  0
 27 28  1  0
 27 29  1  0
 30 31  1  0
 30 32  1  0
M  CHG  1   8   1
M  END
>  <PDB_ID>  (52) 
pdb3ceu

>  <RESIDUE_NAME>  (52) 
HIP   PRO

>  <FRAG_NAME>  (52) 
MIMM   N1PA

>  <FRAG_ATOM_NUM>  (52) 
fragi: 13  fragj: 19

>  <atom.prop.CHAIN_ID>  (52) 
A A A A A A A A A A A A A Z Z Z Z Z Z Z Z Z Z Z Z Z Z Z Z Z Z Z

>  <atom.prop.IS_HEAVY_ATOM>  (52) 
1 0 0 0 1 1 0 1 0 1 0 1 0 1 0 0 0 1 1 1 1 0 0 1 0 0 1 0 0 1 0 0

>  <DIFUSE_FUNC_ATOM>  (52) 
n/a

>  <FINAL_SINGLE_POINT_ENERGY>  (52) 
0

>  <NONCOV_INTER_ENERGY_QM>  (52) 
0

>  <FF_Energy>  (52) 
-15.69

>  <QM_Energy>  (52) 
-23.23

>  <Index>  (52) 
413

$$$$
MIMM-pdb3cgh-A-HIP-284:N1PA-pdb3cgh-A-PRO-288
     RDKit          3D

 32 32  0  0  0  0  0  0  0  0999 V2000
   -0.6857    2.7448    0.0222 C   0  0  0  0  0  0  0  0  0  0  0  0
   -0.1877    3.2278    0.7540 H   0  0  0  0  0  0  0  0  0  0  0  0
   -1.6647    2.7339    0.2637 H   0  0  0  0  0  0  0  0  0  0  0  0
   -0.5571    3.2888   -0.9135 H   0  0  0  0  0  0  0  0  0  0  0  0
   -0.1994    1.3226   -0.0137 C   0  0  0  0  0  0  0  0  0  0  0  0
    1.0551    0.8042   -0.0000 C   0  0  0  0  0  0  0  0  0  0  0  0
    1.9069    1.3173    0.0068 H   0  0  0  0  0  0  0  0  0  0  0  0
    0.9288   -0.5671    0.0043 N   0  0  0  0  0  4  0  0  0  0  0  0
    1.6872   -1.2202    0.0059 H   0  0  0  0  0  0  0  0  0  0  0  0
   -0.3546   -0.8772    0.0050 C   0  0  0  0  0  0  0  0  0  0  0  0
   -0.7294   -1.8007    0.0093 H   0  0  0  0  0  0  0  0  0  0  0  0
   -1.0551    0.2410   -0.0000 N   0  0  0  0  0  0  0  0  0  0  0  0
   -2.0545    0.2997    0.0042 H   0  0  0  0  0  0  0  0  0  0  0  0
   -5.3071    0.2274   -1.1194 C   0  0  0  0  0  0  0  0  0  0  0  0
   -6.2883    0.0623   -0.9733 H   0  0  0  0  0  0  0  0  0  0  0  0
   -5.2004    1.1653   -1.6645 H   0  0  0  0  0  0  0  0  0  0  0  0
   -4.7868   -0.5674   -1.6539 H   0  0  0  0  0  0  0  0  0  0  0  0
   -4.6341    0.3077    0.2550 C   0  0  0  0  0  0  0  0  0  0  0  0
   -3.5071    0.7757    0.3349 O   0  0  0  0  0  0  0  0  0  0  0  0
   -5.2693   -0.2048    1.3233 N   0  0  0  0  0  0  0  0  0  0  0  0
   -4.5628   -0.1026    2.5903 C   0  0  0  0  0  0  0  0  0  0  0  0
   -4.3795    0.8689    2.8205 H   0  0  0  0  0  0  0  0  0  0  0  0
   -3.6395   -0.6818    2.5956 H   0  0  0  0  0  0  0  0  0  0  0  0
   -5.5369   -0.7360    3.5990 C   0  0  0  0  0  0  0  0  0  0  0  0
   -5.2976   -1.6974    3.7594 H   0  0  0  0  0  0  0  0  0  0  0  0
   -5.5045   -0.2435    4.4718 H   0  0  0  0  0  0  0  0  0  0  0  0
   -6.8746   -0.6136    2.9588 C   0  0  0  0  0  0  0  0  0  0  0  0
   -7.4849   -1.3565    3.2716 H   0  0  0  0  0  0  0  0  0  0  0  0
   -7.3053    0.2655    3.2093 H   0  0  0  0  0  0  0  0  0  0  0  0
   -6.6418   -0.6965    1.4875 C   0  0  0  0  0  0  0  0  0  0  0  0
   -6.7193   -1.6397    1.1527 H   0  0  0  0  0  0  0  0  0  0  0  0
   -7.2860   -0.1189    0.9760 H   0  0  0  0  0  0  0  0  0  0  0  0
  1  5  1  0
  5  6  2  0
  6  8  1  0
  8 10  2  0
 10 12  1  0
 12  5  1  0
  1  2  1  0
  1  3  1  0
  1  4  1  0
  6  7  1  0
  8  9  1  0
 10 11  1  0
 12 13  1  0
 14 18  1  0
 18 19  2  0
 18 20  1  0
 20 21  1  0
 21 24  1  0
 24 27  1  0
 27 30  1  0
 30 20  1  0
 14 15  1  0
 14 16  1  0
 14 17  1  0
 21 22  1  0
 21 23  1  0
 24 25  1  0
 24 26  1  0
 27 28  1  0
 27 29  1  0
 30 31  1  0
 30 32  1  0
M  CHG  1   8   1
M  END
>  <PDB_ID>  (53) 
pdb3cgh

>  <RESIDUE_NAME>  (53) 
HIP   PRO

>  <FRAG_NAME>  (53) 
MIMM   N1PA

>  <FRAG_ATOM_NUM>  (53) 
fragi: 13  fragj: 19

>  <atom.prop.CHAIN_ID>  (53) 
A A A A A A A A A A A A A Z Z Z Z Z Z Z Z Z Z Z Z Z Z Z Z Z Z Z

>  <atom.prop.IS_HEAVY_ATOM>  (53) 
1 0 0 0 1 1 0 1 0 1 0 1 0 1 0 0 0 1 1 1 1 0 0 1 0 0 1 0 0 1 0 0

>  <DIFUSE_FUNC_ATOM>  (53) 
n/a

>  <FINAL_SINGLE_POINT_ENERGY>  (53) 
0

>  <NONCOV_INTER_ENERGY_QM>  (53) 
0

>  <FF_Energy>  (53) 
-15.92

>  <QM_Energy>  (53) 
-25.23

>  <Index>  (53) 
414

$$$$
MIMM-pdb1yqz-B-HIP-358:N1PA-pdb1yqz-B-PRO-422
     RDKit          3D

 32 32  0  0  0  0  0  0  0  0999 V2000
   -0.6718    2.7367   -0.0026 C   0  0  0  0  0  0  0  0  0  0  0  0
   -0.3411    3.1848    0.8372 H   0  0  0  0  0  0  0  0  0  0  0  0
   -1.6800    2.7328    0.0185 H   0  0  0  0  0  0  0  0  0  0  0  0
   -0.3426    3.3185   -0.8636 H   0  0  0  0  0  0  0  0  0  0  0  0
   -0.1947    1.3194   -0.0002 C   0  0  0  0  0  0  0  0  0  0  0  0
    1.0563    0.8017    0.0000 C   0  0  0  0  0  0  0  0  0  0  0  0
    1.9100    1.3142    0.0015 H   0  0  0  0  0  0  0  0  0  0  0  0
    0.9269   -0.5655   -0.0004 N   0  0  0  0  0  4  0  0  0  0  0  0
    1.6844   -1.2223   -0.0014 H   0  0  0  0  0  0  0  0  0  0  0  0
   -0.3574   -0.8773   -0.0005 C   0  0  0  0  0  0  0  0  0  0  0  0
   -0.7322   -1.7995    0.0006 H   0  0  0  0  0  0  0  0  0  0  0  0
   -1.0563    0.2439   -0.0000 N   0  0  0  0  0  0  0  0  0  0  0  0
   -2.0547    0.3058   -0.0002 H   0  0  0  0  0  0  0  0  0  0  0  0
    1.6600    5.2909    4.2504 C   0  0  0  0  0  0  0  0  0  0  0  0
    2.1718    5.7184    3.4356 H   0  0  0  0  0  0  0  0  0  0  0  0
    1.2833    6.0867    4.8929 H   0  0  0  0  0  0  0  0  0  0  0  0
    2.5053    4.9008    4.8175 H   0  0  0  0  0  0  0  0  0  0  0  0
    0.7283    4.1879    3.7399 C   0  0  0  0  0  0  0  0  0  0  0  0
    0.8109    3.8265    2.5748 O   0  0  0  0  0  0  0  0  0  0  0  0
   -0.1629    3.6512    4.5823 N   0  0  0  0  0  0  0  0  0  0  0  0
   -1.0616    2.5805    4.1087 C   0  0  0  0  0  0  0  0  0  0  0  0
   -0.5075    1.8095    3.7142 H   0  0  0  0  0  0  0  0  0  0  0  0
   -1.8375    2.8844    3.4061 H   0  0  0  0  0  0  0  0  0  0  0  0
   -1.7253    2.0828    5.3919 C   0  0  0  0  0  0  0  0  0  0  0  0
   -2.6319    2.4875    5.5109 H   0  0  0  0  0  0  0  0  0  0  0  0
   -1.8012    1.0864    5.3980 H   0  0  0  0  0  0  0  0  0  0  0  0
   -0.7947    2.5446    6.5087 C   0  0  0  0  0  0  0  0  0  0  0  0
   -1.2980    2.6167    7.3594 H   0  0  0  0  0  0  0  0  0  0  0  0
   -0.0372    1.9118    6.5983 H   0  0  0  0  0  0  0  0  0  0  0  0
   -0.3351    3.8918    6.0236 C   0  0  0  0  0  0  0  0  0  0  0  0
   -1.0235    4.5921    6.1832 H   0  0  0  0  0  0  0  0  0  0  0  0
    0.5284    4.1558    6.4422 H   0  0  0  0  0  0  0  0  0  0  0  0
  1  5  1  0
  5  6  2  0
  6  8  1  0
  8 10  2  0
 10 12  1  0
 12  5  1  0
  1  2  1  0
  1  3  1  0
  1  4  1  0
  6  7  1  0
  8  9  1  0
 10 11  1  0
 12 13  1  0
 14 18  1  0
 18 19  2  0
 18 20  1  0
 20 21  1  0
 21 24  1  0
 24 27  1  0
 27 30  1  0
 30 20  1  0
 14 15  1  0
 14 16  1  0
 14 17  1  0
 21 22  1  0
 21 23  1  0
 24 25  1  0
 24 26  1  0
 27 28  1  0
 27 29  1  0
 30 31  1  0
 30 32  1  0
M  CHG  1   8   1
M  END
>  <PDB_ID>  (54) 
pdb1yqz

>  <RESIDUE_NAME>  (54) 
HIP   PRO

>  <FRAG_NAME>  (54) 
MIMM   N1PA

>  <FRAG_ATOM_NUM>  (54) 
fragi: 13  fragj: 19

>  <atom.prop.CHAIN_ID>  (54) 
A A A A A A A A A A A A A Z Z Z Z Z Z Z Z Z Z Z Z Z Z Z Z Z Z Z

>  <atom.prop.IS_HEAVY_ATOM>  (54) 
1 0 0 0 1 1 0 1 0 1 0 1 0 1 0 0 0 1 1 1 1 0 0 1 0 0 1 0 0 1 0 0

>  <DIFUSE_FUNC_ATOM>  (54) 
n/a

>  <FINAL_SINGLE_POINT_ENERGY>  (54) 
0

>  <NONCOV_INTER_ENERGY_QM>  (54) 
0

>  <FF_Energy>  (54) 
-6.12

>  <QM_Energy>  (54) 
-11.78

>  <Index>  (54) 
421

$$$$
MIMM-pdb1yqz-B-HIP-358:N1PA-pdb1yqz-B-PRO-363
     RDKit          3D

 32 32  0  0  0  0  0  0  0  0999 V2000
   -0.6718    2.7367   -0.0026 C   0  0  0  0  0  0  0  0  0  0  0  0
   -0.3411    3.1848    0.8372 H   0  0  0  0  0  0  0  0  0  0  0  0
   -1.6800    2.7328    0.0185 H   0  0  0  0  0  0  0  0  0  0  0  0
   -0.3426    3.3185   -0.8636 H   0  0  0  0  0  0  0  0  0  0  0  0
   -0.1947    1.3194   -0.0002 C   0  0  0  0  0  0  0  0  0  0  0  0
    1.0563    0.8017    0.0000 C   0  0  0  0  0  0  0  0  0  0  0  0
    1.9100    1.3142    0.0015 H   0  0  0  0  0  0  0  0  0  0  0  0
    0.9269   -0.5655   -0.0004 N   0  0  0  0  0  4  0  0  0  0  0  0
    1.6844   -1.2223   -0.0014 H   0  0  0  0  0  0  0  0  0  0  0  0
   -0.3574   -0.8773   -0.0005 C   0  0  0  0  0  0  0  0  0  0  0  0
   -0.7322   -1.7995    0.0006 H   0  0  0  0  0  0  0  0  0  0  0  0
   -1.0563    0.2439   -0.0000 N   0  0  0  0  0  0  0  0  0  0  0  0
   -2.0547    0.3058   -0.0002 H   0  0  0  0  0  0  0  0  0  0  0  0
    4.8236    0.1768    2.1668 C   0  0  0  0  0  0  0  0  0  0  0  0
    5.2915   -0.0471    3.0437 H   0  0  0  0  0  0  0  0  0  0  0  0
    5.5325    0.7027    1.5274 H   0  0  0  0  0  0  0  0  0  0  0  0
    3.9900    0.8403    2.3969 H   0  0  0  0  0  0  0  0  0  0  0  0
    4.2995   -1.1321    1.5707 C   0  0  0  0  0  0  0  0  0  0  0  0
    3.8110   -1.1611    0.4469 O   0  0  0  0  0  0  0  0  0  0  0  0
    4.3801   -2.2279    2.3382 N   0  0  0  0  0  0  0  0  0  0  0  0
    3.9505   -3.5828    1.9722 C   0  0  0  0  0  0  0  0  0  0  0  0
    4.6835   -4.0386    1.4014 H   0  0  0  0  0  0  0  0  0  0  0  0
    2.9808   -3.6805    1.4841 H   0  0  0  0  0  0  0  0  0  0  0  0
    3.9863   -4.3221    3.3056 C   0  0  0  0  0  0  0  0  0  0  0  0
    3.1383   -4.1827    3.8095 H   0  0  0  0  0  0  0  0  0  0  0  0
    4.1441   -5.2953    3.1661 H   0  0  0  0  0  0  0  0  0  0  0  0
    5.1340   -3.6812    3.9926 C   0  0  0  0  0  0  0  0  0  0  0  0
    5.1192   -3.8664    4.9666 H   0  0  0  0  0  0  0  0  0  0  0  0
    5.9950   -3.9645    3.5920 H   0  0  0  0  0  0  0  0  0  0  0  0
    4.8778   -2.2118    3.7250 C   0  0  0  0  0  0  0  0  0  0  0  0
    4.1889   -1.8471    4.3434 H   0  0  0  0  0  0  0  0  0  0  0  0
    5.7169   -1.6808    3.7935 H   0  0  0  0  0  0  0  0  0  0  0  0
  1  5  1  0
  5  6  2  0
  6  8  1  0
  8 10  2  0
 10 12  1  0
 12  5  1  0
  1  2  1  0
  1  3  1  0
  1  4  1  0
  6  7  1  0
  8  9  1  0
 10 11  1  0
 12 13  1  0
 14 18  1  0
 18 19  2  0
 18 20  1  0
 20 21  1  0
 21 24  1  0
 24 27  1  0
 27 30  1  0
 30 20  1  0
 14 15  1  0
 14 16  1  0
 14 17  1  0
 21 22  1  0
 21 23  1  0
 24 25  1  0
 24 26  1  0
 27 28  1  0
 27 29  1  0
 30 31  1  0
 30 32  1  0
M  CHG  1   8   1
M  END
>  <PDB_ID>  (55) 
pdb1yqz

>  <RESIDUE_NAME>  (55) 
HIP   PRO

>  <FRAG_NAME>  (55) 
MIMM   N1PA

>  <FRAG_ATOM_NUM>  (55) 
fragi: 13  fragj: 19

>  <atom.prop.CHAIN_ID>  (55) 
A A A A A A A A A A A A A Z Z Z Z Z Z Z Z Z Z Z Z Z Z Z Z Z Z Z

>  <atom.prop.IS_HEAVY_ATOM>  (55) 
1 0 0 0 1 1 0 1 0 1 0 1 0 1 0 0 0 1 1 1 1 0 0 1 0 0 1 0 0 1 0 0

>  <DIFUSE_FUNC_ATOM>  (55) 
n/a

>  <FINAL_SINGLE_POINT_ENERGY>  (55) 
0

>  <NONCOV_INTER_ENERGY_QM>  (55) 
0

>  <FF_Energy>  (55) 
-12.9

>  <QM_Energy>  (55) 
-19.98

>  <Index>  (55) 
422

$$$$
MIMM-pdb1yi8-A-HIP-246:N1PA-pdb1yi8-A-PRO-252
     RDKit          3D

 32 32  0  0  0  0  0  0  0  0999 V2000
   -0.6736    2.7430    0.0027 C   0  0  0  0  0  0  0  0  0  0  0  0
   -0.8095    3.0264    0.9563 H   0  0  0  0  0  0  0  0  0  0  0  0
   -1.5555    2.7824   -0.4760 H   0  0  0  0  0  0  0  0  0  0  0  0
    0.0187    3.4354   -0.4764 H   0  0  0  0  0  0  0  0  0  0  0  0
   -0.1956    1.3206   -0.0040 C   0  0  0  0  0  0  0  0  0  0  0  0
    1.0555    0.8012    0.0000 C   0  0  0  0  0  0  0  0  0  0  0  0
    1.9101    1.3139    0.0009 H   0  0  0  0  0  0  0  0  0  0  0  0
    0.9272   -0.5662    0.0040 N   0  0  0  0  0  4  0  0  0  0  0  0
    1.6847   -1.2216    0.0077 H   0  0  0  0  0  0  0  0  0  0  0  0
   -0.3564   -0.8777    0.0006 C   0  0  0  0  0  0  0  0  0  0  0  0
   -0.7316   -1.7991    0.0000 H   0  0  0  0  0  0  0  0  0  0  0  0
   -1.0555    0.2435   -0.0000 N   0  0  0  0  0  0  0  0  0  0  0  0
   -2.0541    0.3038    0.0012 H   0  0  0  0  0  0  0  0  0  0  0  0
    4.5972   -0.5485   -1.3934 C   0  0  0  0  0  0  0  0  0  0  0  0
    5.6160   -0.6493   -1.4173 H   0  0  0  0  0  0  0  0  0  0  0  0
    4.1976   -1.1551   -2.2061 H   0  0  0  0  0  0  0  0  0  0  0  0
    4.3536    0.5017   -1.5539 H   0  0  0  0  0  0  0  0  0  0  0  0
    4.1482   -0.9547    0.0042 C   0  0  0  0  0  0  0  0  0  0  0  0
    3.0530   -1.4995    0.1891 O   0  0  0  0  0  0  0  0  0  0  0  0
    4.9866   -0.7232    0.9988 N   0  0  0  0  0  0  0  0  0  0  0  0
    4.6806   -1.0530    2.3897 C   0  0  0  0  0  0  0  0  0  0  0  0
    4.3365   -1.9882    2.4708 H   0  0  0  0  0  0  0  0  0  0  0  0
    3.9555   -0.3390    2.7801 H   0  0  0  0  0  0  0  0  0  0  0  0
    6.0254   -0.9604    3.0921 C   0  0  0  0  0  0  0  0  0  0  0  0
    5.9154   -0.6945    4.0452 H   0  0  0  0  0  0  0  0  0  0  0  0
    6.5240   -1.8190    3.0300 H   0  0  0  0  0  0  0  0  0  0  0  0
    6.7239    0.1183    2.3161 C   0  0  0  0  0  0  0  0  0  0  0  0
    6.3553    1.0083    2.5476 H   0  0  0  0  0  0  0  0  0  0  0  0
    7.7010    0.0865    2.4787 H   0  0  0  0  0  0  0  0  0  0  0  0
    6.3961   -0.2525    0.8949 C   0  0  0  0  0  0  0  0  0  0  0  0
    6.4517    0.5331    0.2861 H   0  0  0  0  0  0  0  0  0  0  0  0
    6.9799   -0.9872    0.5604 H   0  0  0  0  0  0  0  0  0  0  0  0
  1  5  1  0
  5  6  2  0
  6  8  1  0
  8 10  2  0
 10 12  1  0
 12  5  1  0
  1  2  1  0
  1  3  1  0
  1  4  1  0
  6  7  1  0
  8  9  1  0
 10 11  1  0
 12 13  1  0
 14 18  1  0
 18 19  2  0
 18 20  1  0
 20 21  1  0
 21 24  1  0
 24 27  1  0
 27 30  1  0
 30 20  1  0
 14 15  1  0
 14 16  1  0
 14 17  1  0
 21 22  1  0
 21 23  1  0
 24 25  1  0
 24 26  1  0
 27 28  1  0
 27 29  1  0
 30 31  1  0
 30 32  1  0
M  CHG  1   8   1
M  END
>  <PDB_ID>  (56) 
pdb1yi8

>  <RESIDUE_NAME>  (56) 
HIP   PRO

>  <FRAG_NAME>  (56) 
MIMM   N1PA

>  <FRAG_ATOM_NUM>  (56) 
fragi: 13  fragj: 19

>  <atom.prop.CHAIN_ID>  (56) 
A A A A A A A A A A A A A Z Z Z Z Z Z Z Z Z Z Z Z Z Z Z Z Z Z Z

>  <atom.prop.IS_HEAVY_ATOM>  (56) 
1 0 0 0 1 1 0 1 0 1 0 1 0 1 0 0 0 1 1 1 1 0 0 1 0 0 1 0 0 1 0 0

>  <DIFUSE_FUNC_ATOM>  (56) 
n/a

>  <FINAL_SINGLE_POINT_ENERGY>  (56) 
0

>  <NONCOV_INTER_ENERGY_QM>  (56) 
0

>  <FF_Energy>  (56) 
-4.16

>  <QM_Energy>  (56) 
-19.68

>  <Index>  (56) 
425

$$$$
MIMM-pdb1yi8-B-HIP-246:N1PA-pdb1yi8-B-PRO-252
     RDKit          3D

 32 32  0  0  0  0  0  0  0  0999 V2000
   -0.6742    2.7389    0.0155 C   0  0  0  0  0  0  0  0  0  0  0  0
   -0.8867    2.9921    0.9651 H   0  0  0  0  0  0  0  0  0  0  0  0
   -1.5171    2.7970   -0.5291 H   0  0  0  0  0  0  0  0  0  0  0  0
    0.0490    3.4501   -0.3834 H   0  0  0  0  0  0  0  0  0  0  0  0
   -0.1964    1.3203   -0.0010 C   0  0  0  0  0  0  0  0  0  0  0  0
    1.0557    0.8007    0.0000 C   0  0  0  0  0  0  0  0  0  0  0  0
    1.9096    1.3148    0.0015 H   0  0  0  0  0  0  0  0  0  0  0  0
    0.9273   -0.5643    0.0003 N   0  0  0  0  0  4  0  0  0  0  0  0
    1.6851   -1.2214   -0.0006 H   0  0  0  0  0  0  0  0  0  0  0  0
   -0.3563   -0.8763    0.0000 C   0  0  0  0  0  0  0  0  0  0  0  0
   -0.7309   -1.7993    0.0007 H   0  0  0  0  0  0  0  0  0  0  0  0
   -1.0557    0.2426    0.0000 N   0  0  0  0  0  0  0  0  0  0  0  0
   -2.0544    0.3029    0.0001 H   0  0  0  0  0  0  0  0  0  0  0  0
    5.2420    0.0303    0.6214 C   0  0  0  0  0  0  0  0  0  0  0  0
    6.1297    0.2536    1.0813 H   0  0  0  0  0  0  0  0  0  0  0  0
    5.4663   -0.6759   -0.1780 H   0  0  0  0  0  0  0  0  0  0  0  0
    4.8119    0.9434    0.2097 H   0  0  0  0  0  0  0  0  0  0  0  0
    4.3068   -0.4871    1.6985 C   0  0  0  0  0  0  0  0  0  0  0  0
    3.5102   -1.3971    1.4745 O   0  0  0  0  0  0  0  0  0  0  0  0
    4.4107    0.0893    2.9033 N   0  0  0  0  0  0  0  0  0  0  0  0
    3.5592   -0.3185    4.0221 C   0  0  0  0  0  0  0  0  0  0  0  0
    3.4071   -1.3082    4.0140 H   0  0  0  0  0  0  0  0  0  0  0  0
    2.6132    0.2213    3.9805 H   0  0  0  0  0  0  0  0  0  0  0  0
    4.3937    0.0732    5.2319 C   0  0  0  0  0  0  0  0  0  0  0  0
    3.8226    0.2041    6.0325 H   0  0  0  0  0  0  0  0  0  0  0  0
    5.1017   -0.5979    5.4113 H   0  0  0  0  0  0  0  0  0  0  0  0
    4.9879    1.3716    4.7808 C   0  0  0  0  0  0  0  0  0  0  0  0
    4.3109    2.0982    4.8023 H   0  0  0  0  0  0  0  0  0  0  0  0
    5.7758    1.6119    5.3353 H   0  0  0  0  0  0  0  0  0  0  0  0
    5.4123    1.0777    3.3458 C   0  0  0  0  0  0  0  0  0  0  0  0
    5.3699    1.9000    2.7859 H   0  0  0  0  0  0  0  0  0  0  0  0
    6.3303    0.6907    3.3171 H   0  0  0  0  0  0  0  0  0  0  0  0
  1  5  1  0
  5  6  2  0
  6  8  1  0
  8 10  2  0
 10 12  1  0
 12  5  1  0
  1  2  1  0
  1  3  1  0
  1  4  1  0
  6  7  1  0
  8  9  1  0
 10 11  1  0
 12 13  1  0
 14 18  1  0
 18 19  2  0
 18 20  1  0
 20 21  1  0
 21 24  1  0
 24 27  1  0
 27 30  1  0
 30 20  1  0
 14 15  1  0
 14 16  1  0
 14 17  1  0
 21 22  1  0
 21 23  1  0
 24 25  1  0
 24 26  1  0
 27 28  1  0
 27 29  1  0
 30 31  1  0
 30 32  1  0
M  CHG  1   8   1
M  END
>  <PDB_ID>  (57) 
pdb1yi8

>  <RESIDUE_NAME>  (57) 
HIP   PRO

>  <FRAG_NAME>  (57) 
MIMM   N1PA

>  <FRAG_ATOM_NUM>  (57) 
fragi: 13  fragj: 19

>  <atom.prop.CHAIN_ID>  (57) 
A A A A A A A A A A A A A Z Z Z Z Z Z Z Z Z Z Z Z Z Z Z Z Z Z Z

>  <atom.prop.IS_HEAVY_ATOM>  (57) 
1 0 0 0 1 1 0 1 0 1 0 1 0 1 0 0 0 1 1 1 1 0 0 1 0 0 1 0 0 1 0 0

>  <DIFUSE_FUNC_ATOM>  (57) 
n/a

>  <FINAL_SINGLE_POINT_ENERGY>  (57) 
0

>  <NONCOV_INTER_ENERGY_QM>  (57) 
0

>  <FF_Energy>  (57) 
-10.81

>  <QM_Energy>  (57) 
-17.08

>  <Index>  (57) 
426

$$$$
MIMM-pdb3dty-A-HIP-97:N1PA-pdb3dty-A-PRO-93
     RDKit          3D

 32 32  0  0  0  0  0  0  0  0999 V2000
   -0.6667    2.7423   -0.0014 C   0  0  0  0  0  0  0  0  0  0  0  0
   -1.2091    2.8941    0.8316 H   0  0  0  0  0  0  0  0  0  0  0  0
   -1.2626    2.8751   -0.8001 H   0  0  0  0  0  0  0  0  0  0  0  0
    0.1440    3.4699   -0.0377 H   0  0  0  0  0  0  0  0  0  0  0  0
   -0.1934    1.3215   -0.0006 C   0  0  0  0  0  0  0  0  0  0  0  0
    1.0568    0.7982    0.0000 C   0  0  0  0  0  0  0  0  0  0  0  0
    1.9121    1.3115    0.0017 H   0  0  0  0  0  0  0  0  0  0  0  0
    0.9280   -0.5680   -0.0012 N   0  0  0  0  0  4  0  0  0  0  0  0
    1.6831   -1.2259   -0.0032 H   0  0  0  0  0  0  0  0  0  0  0  0
   -0.3585   -0.8759   -0.0002 C   0  0  0  0  0  0  0  0  0  0  0  0
   -0.7346   -1.7975    0.0018 H   0  0  0  0  0  0  0  0  0  0  0  0
   -1.0568    0.2458   -0.0000 N   0  0  0  0  0  0  0  0  0  0  0  0
   -2.0543    0.3082   -0.0003 H   0  0  0  0  0  0  0  0  0  0  0  0
    5.5802   -1.1341   -0.1696 C   0  0  0  0  0  0  0  0  0  0  0  0
    6.3039   -1.8060   -0.0284 H   0  0  0  0  0  0  0  0  0  0  0  0
    5.1292   -1.2979   -1.1483 H   0  0  0  0  0  0  0  0  0  0  0  0
    5.9674   -0.1175   -0.1007 H   0  0  0  0  0  0  0  0  0  0  0  0
    4.5101   -1.3524    0.9036 C   0  0  0  0  0  0  0  0  0  0  0  0
    3.3351   -1.5655    0.5913 O   0  0  0  0  0  0  0  0  0  0  0  0
    4.9035   -1.3232    2.1867 N   0  0  0  0  0  0  0  0  0  0  0  0
    3.9265   -1.5215    3.2626 C   0  0  0  0  0  0  0  0  0  0  0  0
    3.5986   -2.4860    3.2746 H   0  0  0  0  0  0  0  0  0  0  0  0
    3.0785   -0.8379    3.2227 H   0  0  0  0  0  0  0  0  0  0  0  0
    4.7702   -1.3719    4.5316 C   0  0  0  0  0  0  0  0  0  0  0  0
    4.2827   -0.8449    5.2266 H   0  0  0  0  0  0  0  0  0  0  0  0
    5.0228   -2.2634    4.9025 H   0  0  0  0  0  0  0  0  0  0  0  0
    6.0075   -0.6207    4.0713 C   0  0  0  0  0  0  0  0  0  0  0  0
    5.8107    0.3510    4.0125 H   0  0  0  0  0  0  0  0  0  0  0  0
    6.7577   -0.7891    4.6993 H   0  0  0  0  0  0  0  0  0  0  0  0
    6.2667   -1.2152    2.7271 C   0  0  0  0  0  0  0  0  0  0  0  0
    6.8213   -0.6168    2.1581 H   0  0  0  0  0  0  0  0  0  0  0  0
    6.6886   -2.1145    2.7944 H   0  0  0  0  0  0  0  0  0  0  0  0
  1  5  1  0
  5  6  2  0
  6  8  1  0
  8 10  2  0
 10 12  1  0
 12  5  1  0
  1  2  1  0
  1  3  1  0
  1  4  1  0
  6  7  1  0
  8  9  1  0
 10 11  1  0
 12 13  1  0
 14 18  1  0
 18 19  2  0
 18 20  1  0
 20 21  1  0
 21 24  1  0
 24 27  1  0
 27 30  1  0
 30 20  1  0
 14 15  1  0
 14 16  1  0
 14 17  1  0
 21 22  1  0
 21 23  1  0
 24 25  1  0
 24 26  1  0
 27 28  1  0
 27 29  1  0
 30 31  1  0
 30 32  1  0
M  CHG  1   8   1
M  END
>  <PDB_ID>  (58) 
pdb3dty

>  <RESIDUE_NAME>  (58) 
HIP   PRO

>  <FRAG_NAME>  (58) 
MIMM   N1PA

>  <FRAG_ATOM_NUM>  (58) 
fragi: 13  fragj: 19

>  <atom.prop.CHAIN_ID>  (58) 
A A A A A A A A A A A A A Z Z Z Z Z Z Z Z Z Z Z Z Z Z Z Z Z Z Z

>  <atom.prop.IS_HEAVY_ATOM>  (58) 
1 0 0 0 1 1 0 1 0 1 0 1 0 1 0 0 0 1 1 1 1 0 0 1 0 0 1 0 0 1 0 0

>  <DIFUSE_FUNC_ATOM>  (58) 
n/a

>  <FINAL_SINGLE_POINT_ENERGY>  (58) 
0

>  <NONCOV_INTER_ENERGY_QM>  (58) 
0

>  <FF_Energy>  (58) 
-16.23

>  <QM_Energy>  (58) 
-24.23

>  <Index>  (58) 
438

$$$$
MIMM-pdb3dty-B-HIP-97:N1PA-pdb3dty-B-PRO-93
     RDKit          3D

 32 32  0  0  0  0  0  0  0  0999 V2000
   -0.6731    2.7383    0.0028 C   0  0  0  0  0  0  0  0  0  0  0  0
   -1.2228    2.8865    0.8319 H   0  0  0  0  0  0  0  0  0  0  0  0
   -1.2630    2.8744   -0.8002 H   0  0  0  0  0  0  0  0  0  0  0  0
    0.1331    3.4715   -0.0227 H   0  0  0  0  0  0  0  0  0  0  0  0
   -0.1948    1.3203    0.0014 C   0  0  0  0  0  0  0  0  0  0  0  0
    1.0559    0.8008    0.0000 C   0  0  0  0  0  0  0  0  0  0  0  0
    1.9108    1.3131   -0.0002 H   0  0  0  0  0  0  0  0  0  0  0  0
    0.9274   -0.5670   -0.0002 N   0  0  0  0  0  4  0  0  0  0  0  0
    1.6843   -1.2233   -0.0008 H   0  0  0  0  0  0  0  0  0  0  0  0
   -0.3568   -0.8764   -0.0011 C   0  0  0  0  0  0  0  0  0  0  0  0
   -0.7326   -1.7986   -0.0012 H   0  0  0  0  0  0  0  0  0  0  0  0
   -1.0559    0.2445    0.0000 N   0  0  0  0  0  0  0  0  0  0  0  0
   -2.0540    0.3054   -0.0009 H   0  0  0  0  0  0  0  0  0  0  0  0
    5.4121   -1.1415    0.0877 C   0  0  0  0  0  0  0  0  0  0  0  0
    6.1898   -1.7457    0.3013 H   0  0  0  0  0  0  0  0  0  0  0  0
    5.0314   -1.4019   -0.8999 H   0  0  0  0  0  0  0  0  0  0  0  0
    5.7064   -0.0920    0.0977 H   0  0  0  0  0  0  0  0  0  0  0  0
    4.3440   -1.3387    1.1672 C   0  0  0  0  0  0  0  0  0  0  0  0
    3.2163   -1.7263    0.8648 O   0  0  0  0  0  0  0  0  0  0  0  0
    4.6854   -1.0685    2.4432 N   0  0  0  0  0  0  0  0  0  0  0  0
    3.7206   -1.2235    3.5425 C   0  0  0  0  0  0  0  0  0  0  0  0
    3.4658   -2.1956    3.6582 H   0  0  0  0  0  0  0  0  0  0  0  0
    2.8302   -0.6105    3.4033 H   0  0  0  0  0  0  0  0  0  0  0  0
    4.5288   -0.8039    4.7695 C   0  0  0  0  0  0  0  0  0  0  0  0
    4.4941    0.1800    4.9009 H   0  0  0  0  0  0  0  0  0  0  0  0
    4.2142   -1.2762    5.5842 H   0  0  0  0  0  0  0  0  0  0  0  0
    5.9257   -1.2439    4.4040 C   0  0  0  0  0  0  0  0  0  0  0  0
    6.5915   -0.7933    4.9794 H   0  0  0  0  0  0  0  0  0  0  0  0
    6.0043   -2.2273    4.4634 H   0  0  0  0  0  0  0  0  0  0  0  0
    6.0321   -0.7735    2.9733 C   0  0  0  0  0  0  0  0  0  0  0  0
    6.2216    0.2024    2.9233 H   0  0  0  0  0  0  0  0  0  0  0  0
    6.7249   -1.2841    2.4723 H   0  0  0  0  0  0  0  0  0  0  0  0
  1  5  1  0
  5  6  2  0
  6  8  1  0
  8 10  2  0
 10 12  1  0
 12  5  1  0
  1  2  1  0
  1  3  1  0
  1  4  1  0
  6  7  1  0
  8  9  1  0
 10 11  1  0
 12 13  1  0
 14 18  1  0
 18 19  2  0
 18 20  1  0
 20 21  1  0
 21 24  1  0
 24 27  1  0
 27 30  1  0
 30 20  1  0
 14 15  1  0
 14 16  1  0
 14 17  1  0
 21 22  1  0
 21 23  1  0
 24 25  1  0
 24 26  1  0
 27 28  1  0
 27 29  1  0
 30 31  1  0
 30 32  1  0
M  CHG  1   8   1
M  END
>  <PDB_ID>  (59) 
pdb3dty

>  <RESIDUE_NAME>  (59) 
HIP   PRO

>  <FRAG_NAME>  (59) 
MIMM   N1PA

>  <FRAG_ATOM_NUM>  (59) 
fragi: 13  fragj: 19

>  <atom.prop.CHAIN_ID>  (59) 
A A A A A A A A A A A A A Z Z Z Z Z Z Z Z Z Z Z Z Z Z Z Z Z Z Z

>  <atom.prop.IS_HEAVY_ATOM>  (59) 
1 0 0 0 1 1 0 1 0 1 0 1 0 1 0 0 0 1 1 1 1 0 0 1 0 0 1 0 0 1 0 0

>  <DIFUSE_FUNC_ATOM>  (59) 
n/a

>  <FINAL_SINGLE_POINT_ENERGY>  (59) 
0

>  <NONCOV_INTER_ENERGY_QM>  (59) 
0

>  <FF_Energy>  (59) 
-15.33

>  <QM_Energy>  (59) 
-23.36

>  <Index>  (59) 
439

$$$$
MIMM-pdb3dty-E-HIP-97:N1PA-pdb3dty-E-PRO-93
     RDKit          3D

 32 32  0  0  0  0  0  0  0  0999 V2000
   -0.6709    2.7399    0.0133 C   0  0  0  0  0  0  0  0  0  0  0  0
   -1.2007    2.8891    0.8546 H   0  0  0  0  0  0  0  0  0  0  0  0
   -1.2788    2.8750   -0.7764 H   0  0  0  0  0  0  0  0  0  0  0  0
    0.1380    3.4689   -0.0319 H   0  0  0  0  0  0  0  0  0  0  0  0
   -0.1971    1.3180    0.0023 C   0  0  0  0  0  0  0  0  0  0  0  0
    1.0568    0.8021   -0.0000 C   0  0  0  0  0  0  0  0  0  0  0  0
    1.9085    1.3160    0.0002 H   0  0  0  0  0  0  0  0  0  0  0  0
    0.9274   -0.5652   -0.0020 N   0  0  0  0  0  4  0  0  0  0  0  0
    1.6862   -1.2213   -0.0047 H   0  0  0  0  0  0  0  0  0  0  0  0
   -0.3546   -0.8780   -0.0012 C   0  0  0  0  0  0  0  0  0  0  0  0
   -0.7303   -1.7996   -0.0003 H   0  0  0  0  0  0  0  0  0  0  0  0
   -1.0568    0.2447    0.0000 N   0  0  0  0  0  0  0  0  0  0  0  0
   -2.0548    0.3019   -0.0011 H   0  0  0  0  0  0  0  0  0  0  0  0
    5.5767   -1.0057   -0.3712 C   0  0  0  0  0  0  0  0  0  0  0  0
    6.3312   -1.6556   -0.2481 H   0  0  0  0  0  0  0  0  0  0  0  0
    5.1050   -1.1924   -1.3359 H   0  0  0  0  0  0  0  0  0  0  0  0
    5.9586    0.0146   -0.3337 H   0  0  0  0  0  0  0  0  0  0  0  0
    4.5677   -1.2295    0.7648 C   0  0  0  0  0  0  0  0  0  0  0  0
    3.3819   -1.4443    0.5147 O   0  0  0  0  0  0  0  0  0  0  0  0
    5.0285   -1.1924    2.0272 N   0  0  0  0  0  0  0  0  0  0  0  0
    4.1241   -1.3967    3.1661 C   0  0  0  0  0  0  0  0  0  0  0  0
    3.8709   -2.3738    3.2490 H   0  0  0  0  0  0  0  0  0  0  0  0
    3.2296   -0.7764    3.1103 H   0  0  0  0  0  0  0  0  0  0  0  0
    5.0052   -1.0523    4.3648 C   0  0  0  0  0  0  0  0  0  0  0  0
    5.0092   -0.0730    4.5355 H   0  0  0  0  0  0  0  0  0  0  0  0
    4.7151   -1.5454    5.1763 H   0  0  0  0  0  0  0  0  0  0  0  0
    6.3662   -1.5194    3.9145 C   0  0  0  0  0  0  0  0  0  0  0  0
    7.0758   -1.1052    4.4646 H   0  0  0  0  0  0  0  0  0  0  0  0
    6.4202   -2.5061    3.9408 H   0  0  0  0  0  0  0  0  0  0  0  0
    6.4191   -1.0098    2.4869 C   0  0  0  0  0  0  0  0  0  0  0  0
    6.6770   -0.0488    2.4559 H   0  0  0  0  0  0  0  0  0  0  0  0
    7.0473   -1.5504    1.9337 H   0  0  0  0  0  0  0  0  0  0  0  0
  1  5  1  0
  5  6  2  0
  6  8  1  0
  8 10  2  0
 10 12  1  0
 12  5  1  0
  1  2  1  0
  1  3  1  0
  1  4  1  0
  6  7  1  0
  8  9  1  0
 10 11  1  0
 12 13  1  0
 14 18  1  0
 18 19  2  0
 18 20  1  0
 20 21  1  0
 21 24  1  0
 24 27  1  0
 27 30  1  0
 30 20  1  0
 14 15  1  0
 14 16  1  0
 14 17  1  0
 21 22  1  0
 21 23  1  0
 24 25  1  0
 24 26  1  0
 27 28  1  0
 27 29  1  0
 30 31  1  0
 30 32  1  0
M  CHG  1   8   1
M  END
>  <PDB_ID>  (60) 
pdb3dty

>  <RESIDUE_NAME>  (60) 
HIP   PRO

>  <FRAG_NAME>  (60) 
MIMM   N1PA

>  <FRAG_ATOM_NUM>  (60) 
fragi: 13  fragj: 19

>  <atom.prop.CHAIN_ID>  (60) 
A A A A A A A A A A A A A Z Z Z Z Z Z Z Z Z Z Z Z Z Z Z Z Z Z Z

>  <atom.prop.IS_HEAVY_ATOM>  (60) 
1 0 0 0 1 1 0 1 0 1 0 1 0 1 0 0 0 1 1 1 1 0 0 1 0 0 1 0 0 1 0 0

>  <DIFUSE_FUNC_ATOM>  (60) 
n/a

>  <FINAL_SINGLE_POINT_ENERGY>  (60) 
0

>  <NONCOV_INTER_ENERGY_QM>  (60) 
0

>  <FF_Energy>  (60) 
-16.1

>  <QM_Energy>  (60) 
-24.35

>  <Index>  (60) 
441

$$$$
MIMM-pdb3e18-A-HIP-163:N1PA-pdb3e18-A-PRO-158
     RDKit          3D

 32 32  0  0  0  0  0  0  0  0999 V2000
   -0.6702    2.7390    0.0102 C   0  0  0  0  0  0  0  0  0  0  0  0
   -0.1715    3.2365    0.7309 H   0  0  0  0  0  0  0  0  0  0  0  0
   -1.6508    2.7436    0.2437 H   0  0  0  0  0  0  0  0  0  0  0  0
   -0.5332    3.2619   -0.9364 H   0  0  0  0  0  0  0  0  0  0  0  0
   -0.1946    1.3209    0.0004 C   0  0  0  0  0  0  0  0  0  0  0  0
    1.0557    0.8023    0.0000 C   0  0  0  0  0  0  0  0  0  0  0  0
    1.9098    1.3144    0.0015 H   0  0  0  0  0  0  0  0  0  0  0  0
    0.9268   -0.5664   -0.0016 N   0  0  0  0  0  4  0  0  0  0  0  0
    1.6842   -1.2218   -0.0040 H   0  0  0  0  0  0  0  0  0  0  0  0
   -0.3575   -0.8786   -0.0005 C   0  0  0  0  0  0  0  0  0  0  0  0
   -0.7322   -1.7998    0.0012 H   0  0  0  0  0  0  0  0  0  0  0  0
   -1.0557    0.2430    0.0000 N   0  0  0  0  0  0  0  0  0  0  0  0
   -2.0544    0.3045   -0.0003 H   0  0  0  0  0  0  0  0  0  0  0  0
    1.2389   -2.4891   -3.9660 C   0  0  0  0  0  0  0  0  0  0  0  0
    1.7084   -2.5071   -4.8450 H   0  0  0  0  0  0  0  0  0  0  0  0
    0.6886   -3.4269   -3.8908 H   0  0  0  0  0  0  0  0  0  0  0  0
    0.5793   -1.6263   -3.8724 H   0  0  0  0  0  0  0  0  0  0  0  0
    2.3365   -2.4618   -2.8884 C   0  0  0  0  0  0  0  0  0  0  0  0
    2.0381   -2.6499   -1.7021 O   0  0  0  0  0  0  0  0  0  0  0  0
    3.6065   -2.2398   -3.3005 N   0  0  0  0  0  0  0  0  0  0  0  0
    4.7375   -2.3434   -2.3731 C   0  0  0  0  0  0  0  0  0  0  0  0
    4.6541   -3.1805   -1.8040 H   0  0  0  0  0  0  0  0  0  0  0  0
    4.8548   -1.4624   -1.7421 H   0  0  0  0  0  0  0  0  0  0  0  0
    5.9426   -2.5006   -3.3044 C   0  0  0  0  0  0  0  0  0  0  0  0
    6.7549   -2.0606   -2.9106 H   0  0  0  0  0  0  0  0  0  0  0  0
    6.1447   -3.4714   -3.4631 H   0  0  0  0  0  0  0  0  0  0  0  0
    5.5376   -1.8247   -4.5800 C   0  0  0  0  0  0  0  0  0  0  0  0
    5.8621   -0.8638   -4.5851 H   0  0  0  0  0  0  0  0  0  0  0  0
    5.9642   -2.2907   -5.3726 H   0  0  0  0  0  0  0  0  0  0  0  0
    4.0384   -1.8825   -4.6697 C   0  0  0  0  0  0  0  0  0  0  0  0
    3.6507   -0.9973   -4.9367 H   0  0  0  0  0  0  0  0  0  0  0  0
    3.7344   -2.5807   -5.3242 H   0  0  0  0  0  0  0  0  0  0  0  0
  1  5  1  0
  5  6  2  0
  6  8  1  0
  8 10  2  0
 10 12  1  0
 12  5  1  0
  1  2  1  0
  1  3  1  0
  1  4  1  0
  6  7  1  0
  8  9  1  0
 10 11  1  0
 12 13  1  0
 14 18  1  0
 18 19  2  0
 18 20  1  0
 20 21  1  0
 21 24  1  0
 24 27  1  0
 27 30  1  0
 30 20  1  0
 14 15  1  0
 14 16  1  0
 14 17  1  0
 21 22  1  0
 21 23  1  0
 24 25  1  0
 24 26  1  0
 27 28  1  0
 27 29  1  0
 30 31  1  0
 30 32  1  0
M  CHG  1   8   1
M  END
>  <PDB_ID>  (61) 
pdb3e18

>  <RESIDUE_NAME>  (61) 
HIP   PRO

>  <FRAG_NAME>  (61) 
MIMM   N1PA

>  <FRAG_ATOM_NUM>  (61) 
fragi: 13  fragj: 19

>  <atom.prop.CHAIN_ID>  (61) 
A A A A A A A A A A A A A Z Z Z Z Z Z Z Z Z Z Z Z Z Z Z Z Z Z Z

>  <atom.prop.IS_HEAVY_ATOM>  (61) 
1 0 0 0 1 1 0 1 0 1 0 1 0 1 0 0 0 1 1 1 1 0 0 1 0 0 1 0 0 1 0 0

>  <DIFUSE_FUNC_ATOM>  (61) 
n/a

>  <FINAL_SINGLE_POINT_ENERGY>  (61) 
0

>  <NONCOV_INTER_ENERGY_QM>  (61) 
0

>  <FF_Energy>  (61) 
-12.66

>  <QM_Energy>  (61) 
-19.18

>  <Index>  (61) 
442

$$$$
MIMM-pdb3eo4-D-HIP-466:N1PA-pdb3eo4-D-PRO-429
     RDKit          3D

 32 32  0  0  0  0  0  0  0  0999 V2000
   -0.6723    2.7429    0.0075 C   0  0  0  0  0  0  0  0  0  0  0  0
   -1.5573    2.7821   -0.4670 H   0  0  0  0  0  0  0  0  0  0  0  0
   -0.0094    3.3008   -0.5015 H   0  0  0  0  0  0  0  0  0  0  0  0
   -0.7931    3.1718    1.0023 H   0  0  0  0  0  0  0  0  0  0  0  0
   -0.1955    1.3209    0.0116 C   0  0  0  0  0  0  0  0  0  0  0  0
    1.0559    0.8023   -0.0000 C   0  0  0  0  0  0  0  0  0  0  0  0
    1.9095    1.3143   -0.0004 H   0  0  0  0  0  0  0  0  0  0  0  0
    0.9274   -0.5661   -0.0086 N   0  0  0  0  0  4  0  0  0  0  0  0
    1.6847   -1.2212   -0.0184 H   0  0  0  0  0  0  0  0  0  0  0  0
   -0.3571   -0.8773   -0.0044 C   0  0  0  0  0  0  0  0  0  0  0  0
   -0.7318   -1.7999   -0.0030 H   0  0  0  0  0  0  0  0  0  0  0  0
   -1.0559    0.2429   -0.0000 N   0  0  0  0  0  0  0  0  0  0  0  0
   -2.0544    0.3042   -0.0040 H   0  0  0  0  0  0  0  0  0  0  0  0
    5.3319    2.7619   -0.4250 C   0  0  0  0  0  0  0  0  0  0  0  0
    5.4087    3.6779   -0.0258 H   0  0  0  0  0  0  0  0  0  0  0  0
    6.3387    2.4241   -0.6707 H   0  0  0  0  0  0  0  0  0  0  0  0
    4.7427    2.7408   -1.3417 H   0  0  0  0  0  0  0  0  0  0  0  0
    4.7451    1.8598    0.6468 C   0  0  0  0  0  0  0  0  0  0  0  0
    3.9260    0.9861    0.3489 O   0  0  0  0  0  0  0  0  0  0  0  0
    5.1619    2.0550    1.9096 N   0  0  0  0  0  0  0  0  0  0  0  0
    4.7499    1.1019    2.9372 C   0  0  0  0  0  0  0  0  0  0  0  0
    5.1543    0.1871    2.7566 H   0  0  0  0  0  0  0  0  0  0  0  0
    3.6669    1.0306    3.0375 H   0  0  0  0  0  0  0  0  0  0  0  0
    5.3427    1.6861    4.2120 C   0  0  0  0  0  0  0  0  0  0  0  0
    4.6847    2.2885    4.6678 H   0  0  0  0  0  0  0  0  0  0  0  0
    5.6166    0.9594    4.8432 H   0  0  0  0  0  0  0  0  0  0  0  0
    6.5263    2.4533    3.7330 C   0  0  0  0  0  0  0  0  0  0  0  0
    6.7794    3.1625    4.3995 H   0  0  0  0  0  0  0  0  0  0  0  0
    7.3136    1.8412    3.6034 H   0  0  0  0  0  0  0  0  0  0  0  0
    6.0984    3.0604    2.4374 C   0  0  0  0  0  0  0  0  0  0  0  0
    5.6336    3.9332    2.5728 H   0  0  0  0  0  0  0  0  0  0  0  0
    6.8684    3.1823    1.8122 H   0  0  0  0  0  0  0  0  0  0  0  0
  1  5  1  0
  5  6  2  0
  6  8  1  0
  8 10  2  0
 10 12  1  0
 12  5  1  0
  1  2  1  0
  1  3  1  0
  1  4  1  0
  6  7  1  0
  8  9  1  0
 10 11  1  0
 12 13  1  0
 14 18  1  0
 18 19  2  0
 18 20  1  0
 20 21  1  0
 21 24  1  0
 24 27  1  0
 27 30  1  0
 30 20  1  0
 14 15  1  0
 14 16  1  0
 14 17  1  0
 21 22  1  0
 21 23  1  0
 24 25  1  0
 24 26  1  0
 27 28  1  0
 27 29  1  0
 30 31  1  0
 30 32  1  0
M  CHG  1   8   1
M  END
>  <PDB_ID>  (62) 
pdb3eo4

>  <RESIDUE_NAME>  (62) 
HIP   PRO

>  <FRAG_NAME>  (62) 
MIMM   N1PA

>  <FRAG_ATOM_NUM>  (62) 
fragi: 13  fragj: 19

>  <atom.prop.CHAIN_ID>  (62) 
A A A A A A A A A A A A A Z Z Z Z Z Z Z Z Z Z Z Z Z Z Z Z Z Z Z

>  <atom.prop.IS_HEAVY_ATOM>  (62) 
1 0 0 0 1 1 0 1 0 1 0 1 0 1 0 0 0 1 1 1 1 0 0 1 0 0 1 0 0 1 0 0

>  <DIFUSE_FUNC_ATOM>  (62) 
n/a

>  <FINAL_SINGLE_POINT_ENERGY>  (62) 
0

>  <NONCOV_INTER_ENERGY_QM>  (62) 
0

>  <FF_Energy>  (62) 
-6.04

>  <QM_Energy>  (62) 
-16.55

>  <Index>  (62) 
453

$$$$
MIMM-pdb3f7o-A-HIP-72:N1PA-pdb3f7o-X-PRO-4
     RDKit          3D

 32 32  0  0  0  0  0  0  0  0999 V2000
   -0.6830    2.7372   -0.0040 C   0  0  0  0  0  0  0  0  0  0  0  0
   -0.1030    3.2652    0.6270 H   0  0  0  0  0  0  0  0  0  0  0  0
   -1.6270    2.7484    0.3455 H   0  0  0  0  0  0  0  0  0  0  0  0
   -0.6602    3.2056   -0.9879 H   0  0  0  0  0  0  0  0  0  0  0  0
   -0.2016    1.3126    0.0019 C   0  0  0  0  0  0  0  0  0  0  0  0
    1.0546    0.8116    0.0000 C   0  0  0  0  0  0  0  0  0  0  0  0
    1.9026    1.3225    0.0003 H   0  0  0  0  0  0  0  0  0  0  0  0
    0.9261   -0.5642   -0.0012 N   0  0  0  0  0  4  0  0  0  0  0  0
    1.6939   -1.2122   -0.0027 H   0  0  0  0  0  0  0  0  0  0  0  0
   -0.3471   -0.8823   -0.0010 C   0  0  0  0  0  0  0  0  0  0  0  0
   -0.7245   -1.8021   -0.0007 H   0  0  0  0  0  0  0  0  0  0  0  0
   -1.0546    0.2422    0.0000 N   0  0  0  0  0  0  0  0  0  0  0  0
   -2.0531    0.2914   -0.0011 H   0  0  0  0  0  0  0  0  0  0  0  0
   -0.3772   -1.4392    7.4073 C   0  0  0  0  0  0  0  0  0  0  0  0
   -0.8256   -0.5803    7.5566 H   0  0  0  0  0  0  0  0  0  0  0  0
   -0.9484   -2.2387    7.8792 H   0  0  0  0  0  0  0  0  0  0  0  0
    0.6588   -1.4557    7.7456 H   0  0  0  0  0  0  0  0  0  0  0  0
   -0.4663   -1.7936    5.9500 C   0  0  0  0  0  0  0  0  0  0  0  0
   -0.7924   -2.9307    5.6050 O   0  0  0  0  0  0  0  0  0  0  0  0
   -0.2576   -0.8076    5.0766 N   0  0  0  0  0  0  0  0  0  0  0  0
   -0.3145   -1.0901    3.6423 C   0  0  0  0  0  0  0  0  0  0  0  0
   -1.1066   -1.6312    3.4108 H   0  0  0  0  0  0  0  0  0  0  0  0
    0.6047   -1.6192    3.3910 H   0  0  0  0  0  0  0  0  0  0  0  0
   -0.4139    0.3067    3.0268 C   0  0  0  0  0  0  0  0  0  0  0  0
    0.0668    0.3544    2.1586 H   0  0  0  0  0  0  0  0  0  0  0  0
   -1.3593    0.5877    2.9182 H   0  0  0  0  0  0  0  0  0  0  0  0
    0.2832    1.1933    4.0629 C   0  0  0  0  0  0  0  0  0  0  0  0
    1.2573    1.0645    4.0091 H   0  0  0  0  0  0  0  0  0  0  0  0
    0.0246    2.1322    3.9244 H   0  0  0  0  0  0  0  0  0  0  0  0
   -0.2834    0.6408    5.3367 C   0  0  0  0  0  0  0  0  0  0  0  0
    0.2869    0.8657    6.1206 H   0  0  0  0  0  0  0  0  0  0  0  0
   -1.2171    0.9531    5.4907 H   0  0  0  0  0  0  0  0  0  0  0  0
  1  5  1  0
  5  6  2  0
  6  8  1  0
  8 10  2  0
 10 12  1  0
 12  5  1  0
  1  2  1  0
  1  3  1  0
  1  4  1  0
  6  7  1  0
  8  9  1  0
 10 11  1  0
 12 13  1  0
 14 18  1  0
 18 19  2  0
 18 20  1  0
 20 21  1  0
 21 24  1  0
 24 27  1  0
 27 30  1  0
 30 20  1  0
 14 15  1  0
 14 16  1  0
 14 17  1  0
 21 22  1  0
 21 23  1  0
 24 25  1  0
 24 26  1  0
 27 28  1  0
 27 29  1  0
 30 31  1  0
 30 32  1  0
M  CHG  1   8   1
M  END
>  <PDB_ID>  (63) 
pdb3f7o

>  <RESIDUE_NAME>  (63) 
HIP   PRO

>  <FRAG_NAME>  (63) 
MIMM   N1PA

>  <FRAG_ATOM_NUM>  (63) 
fragi: 13  fragj: 19

>  <atom.prop.CHAIN_ID>  (63) 
A A A A A A A A A A A A A Z Z Z Z Z Z Z Z Z Z Z Z Z Z Z Z Z Z Z

>  <atom.prop.IS_HEAVY_ATOM>  (63) 
1 0 0 0 1 1 0 1 0 1 0 1 0 1 0 0 0 1 1 1 1 0 0 1 0 0 1 0 0 1 0 0

>  <DIFUSE_FUNC_ATOM>  (63) 
n/a

>  <FINAL_SINGLE_POINT_ENERGY>  (63) 
0

>  <NONCOV_INTER_ENERGY_QM>  (63) 
0

>  <FF_Energy>  (63) 
7.8

>  <QM_Energy>  (63) 
1.14

>  <Index>  (63) 
455

$$$$
MIMM-pdb3f7o-B-HIP-72:N1PA-pdb3f7o-Y-PRO-4
     RDKit          3D

 32 32  0  0  0  0  0  0  0  0999 V2000
   -0.6711    2.7381    0.0044 C   0  0  0  0  0  0  0  0  0  0  0  0
   -0.1361    3.2517    0.6859 H   0  0  0  0  0  0  0  0  0  0  0  0
   -1.6374    2.7477    0.2881 H   0  0  0  0  0  0  0  0  0  0  0  0
   -0.5823    3.2350   -0.9618 H   0  0  0  0  0  0  0  0  0  0  0  0
   -0.1958    1.3229    0.0006 C   0  0  0  0  0  0  0  0  0  0  0  0
    1.0551    0.7986    0.0000 C   0  0  0  0  0  0  0  0  0  0  0  0
    1.9096    1.3139    0.0015 H   0  0  0  0  0  0  0  0  0  0  0  0
    0.9280   -0.5640   -0.0014 N   0  0  0  0  0  4  0  0  0  0  0  0
    1.6821   -1.2230   -0.0038 H   0  0  0  0  0  0  0  0  0  0  0  0
   -0.3601   -0.8754   -0.0004 C   0  0  0  0  0  0  0  0  0  0  0  0
   -0.7321   -1.7991    0.0007 H   0  0  0  0  0  0  0  0  0  0  0  0
   -1.0551    0.2416    0.0000 N   0  0  0  0  0  0  0  0  0  0  0  0
   -2.0555    0.3060   -0.0006 H   0  0  0  0  0  0  0  0  0  0  0  0
   -1.0480   -1.6034    7.4249 C   0  0  0  0  0  0  0  0  0  0  0  0
   -1.5752   -0.7788    7.5626 H   0  0  0  0  0  0  0  0  0  0  0  0
   -1.5959   -2.4522    7.8340 H   0  0  0  0  0  0  0  0  0  0  0  0
   -0.0529   -1.5435    7.8657 H   0  0  0  0  0  0  0  0  0  0  0  0
   -0.9393   -1.8801    5.9487 C   0  0  0  0  0  0  0  0  0  0  0  0
   -1.1846   -3.0024    5.5104 O   0  0  0  0  0  0  0  0  0  0  0  0
   -0.6249   -0.8543    5.1489 N   0  0  0  0  0  0  0  0  0  0  0  0
   -0.5108   -1.1651    3.7297 C   0  0  0  0  0  0  0  0  0  0  0  0
   -1.2290   -1.7876    3.4319 H   0  0  0  0  0  0  0  0  0  0  0  0
    0.4701   -1.6007    3.5395 H   0  0  0  0  0  0  0  0  0  0  0  0
   -0.7404    0.1955    3.0627 C   0  0  0  0  0  0  0  0  0  0  0  0
   -0.2430    0.2486    2.1974 H   0  0  0  0  0  0  0  0  0  0  0  0
   -1.7135    0.3453    2.8990 H   0  0  0  0  0  0  0  0  0  0  0  0
   -0.2038    1.1556    4.0552 C   0  0  0  0  0  0  0  0  0  0  0  0
    0.7869    1.1467    4.0653 H   0  0  0  0  0  0  0  0  0  0  0  0
   -0.5494    2.0693    3.8941 H   0  0  0  0  0  0  0  0  0  0  0  0
   -0.7558    0.5969    5.3492 C   0  0  0  0  0  0  0  0  0  0  0  0
   -0.2161    0.8964    6.1307 H   0  0  0  0  0  0  0  0  0  0  0  0
   -1.7110    0.8529    5.4751 H   0  0  0  0  0  0  0  0  0  0  0  0
  1  5  1  0
  5  6  2  0
  6  8  1  0
  8 10  2  0
 10 12  1  0
 12  5  1  0
  1  2  1  0
  1  3  1  0
  1  4  1  0
  6  7  1  0
  8  9  1  0
 10 11  1  0
 12 13  1  0
 14 18  1  0
 18 19  2  0
 18 20  1  0
 20 21  1  0
 21 24  1  0
 24 27  1  0
 27 30  1  0
 30 20  1  0
 14 15  1  0
 14 16  1  0
 14 17  1  0
 21 22  1  0
 21 23  1  0
 24 25  1  0
 24 26  1  0
 27 28  1  0
 27 29  1  0
 30 31  1  0
 30 32  1  0
M  CHG  1   8   1
M  END
>  <PDB_ID>  (64) 
pdb3f7o

>  <RESIDUE_NAME>  (64) 
HIP   PRO

>  <FRAG_NAME>  (64) 
MIMM   N1PA

>  <FRAG_ATOM_NUM>  (64) 
fragi: 13  fragj: 19

>  <atom.prop.CHAIN_ID>  (64) 
A A A A A A A A A A A A A Z Z Z Z Z Z Z Z Z Z Z Z Z Z Z Z Z Z Z

>  <atom.prop.IS_HEAVY_ATOM>  (64) 
1 0 0 0 1 1 0 1 0 1 0 1 0 1 0 0 0 1 1 1 1 0 0 1 0 0 1 0 0 1 0 0

>  <DIFUSE_FUNC_ATOM>  (64) 
n/a

>  <FINAL_SINGLE_POINT_ENERGY>  (64) 
0

>  <NONCOV_INTER_ENERGY_QM>  (64) 
0

>  <FF_Energy>  (64) 
6.05

>  <QM_Energy>  (64) 
0.65

>  <Index>  (64) 
456

$$$$
MIMM-pdb4arn-A-HIP-191:N1PA-pdb4arn-B-PRO-262
     RDKit          3D

 32 32  0  0  0  0  0  0  0  0999 V2000
   -0.6014    2.7414   -0.0131 C   0  0  0  0  0  0  0  0  0  0  0  0
   -1.4126    2.8300    0.5752 H   0  0  0  0  0  0  0  0  0  0  0  0
   -0.8599    2.9890   -0.9536 H   0  0  0  0  0  0  0  0  0  0  0  0
    0.1587    3.4415    0.3339 H   0  0  0  0  0  0  0  0  0  0  0  0
   -0.1636    1.3068   -0.0044 C   0  0  0  0  0  0  0  0  0  0  0  0
    1.0841    0.7765    0.0000 C   0  0  0  0  0  0  0  0  0  0  0  0
    1.9417    1.2782   -0.0009 H   0  0  0  0  0  0  0  0  0  0  0  0
    0.9345   -0.5886    0.0075 N   0  0  0  0  0  4  0  0  0  0  0  0
    1.6559   -1.2628    0.0156 H   0  0  0  0  0  0  0  0  0  0  0  0
   -0.3752   -0.8395    0.0002 C   0  0  0  0  0  0  0  0  0  0  0  0
   -0.7709   -1.7720   -0.0031 H   0  0  0  0  0  0  0  0  0  0  0  0
   -1.0841    0.2773   -0.0000 N   0  0  0  0  0  0  0  0  0  0  0  0
   -2.0570    0.3619    0.0016 H   0  0  0  0  0  0  0  0  0  0  0  0
    2.6874   -4.6822    1.7536 C   0  0  0  0  0  0  0  0  0  0  0  0
    3.0882   -5.1086    2.5692 H   0  0  0  0  0  0  0  0  0  0  0  0
    1.7336   -4.2340    2.0321 H   0  0  0  0  0  0  0  0  0  0  0  0
    2.5425   -5.4731    1.0176 H   0  0  0  0  0  0  0  0  0  0  0  0
    3.6585   -3.6071    1.2580 C   0  0  0  0  0  0  0  0  0  0  0  0
    3.2129   -2.6394    0.6432 O   0  0  0  0  0  0  0  0  0  0  0  0
    4.9675   -3.6792    1.5943 N   0  0  0  0  0  0  0  0  0  0  0  0
    5.6848   -4.7690    2.2921 C   0  0  0  0  0  0  0  0  0  0  0  0
    5.2888   -5.6763    2.0209 H   0  0  0  0  0  0  0  0  0  0  0  0
    5.7313   -4.6892    3.3782 H   0  0  0  0  0  0  0  0  0  0  0  0
    7.0979   -4.6398    1.7122 C   0  0  0  0  0  0  0  0  0  0  0  0
    7.7755   -5.0097    2.3417 H   0  0  0  0  0  0  0  0  0  0  0  0
    7.1637   -5.0964    0.8301 H   0  0  0  0  0  0  0  0  0  0  0  0
    7.2713   -3.1499    1.5569 C   0  0  0  0  0  0  0  0  0  0  0  0
    7.5562   -2.7398    2.4247 H   0  0  0  0  0  0  0  0  0  0  0  0
    7.9580   -2.9506    0.8561 H   0  0  0  0  0  0  0  0  0  0  0  0
    5.9090   -2.6317    1.1379 C   0  0  0  0  0  0  0  0  0  0  0  0
    5.7015   -1.7581    1.5795 H   0  0  0  0  0  0  0  0  0  0  0  0
    5.8530   -2.5194    0.1434 H   0  0  0  0  0  0  0  0  0  0  0  0
  1  5  1  0
  5  6  2  0
  6  8  1  0
  8 10  2  0
 10 12  1  0
 12  5  1  0
  1  2  1  0
  1  3  1  0
  1  4  1  0
  6  7  1  0
  8  9  1  0
 10 11  1  0
 12 13  1  0
 14 18  1  0
 18 19  2  0
 18 20  1  0
 20 21  1  0
 21 24  1  0
 24 27  1  0
 27 30  1  0
 30 20  1  0
 14 15  1  0
 14 16  1  0
 14 17  1  0
 21 22  1  0
 21 23  1  0
 24 25  1  0
 24 26  1  0
 27 28  1  0
 27 29  1  0
 30 31  1  0
 30 32  1  0
M  CHG  1   8   1
M  END
>  <PDB_ID>  (65) 
pdb4arn

>  <RESIDUE_NAME>  (65) 
HIP   PRO

>  <FRAG_NAME>  (65) 
MIMM   N1PA

>  <FRAG_ATOM_NUM>  (65) 
fragi: 13  fragj: 19

>  <atom.prop.CHAIN_ID>  (65) 
A A A A A A A A A A A A A Z Z Z Z Z Z Z Z Z Z Z Z Z Z Z Z Z Z Z

>  <atom.prop.IS_HEAVY_ATOM>  (65) 
1 0 0 0 1 1 0 1 0 1 0 1 0 1 0 0 0 1 1 1 1 0 0 1 0 0 1 0 0 1 0 0

>  <DIFUSE_FUNC_ATOM>  (65) 
n/a

>  <FINAL_SINGLE_POINT_ENERGY>  (65) 
0

>  <NONCOV_INTER_ENERGY_QM>  (65) 
0

>  <FF_Energy>  (65) 
-14.5

>  <QM_Energy>  (65) 
-21.49

>  <Index>  (65) 
458

$$$$
MIMM-pdb3fay-A-HIP-1325:N1PA-pdb3fay-A-PRO-1318
     RDKit          3D

 32 32  0  0  0  0  0  0  0  0999 V2000
   -0.6701    2.7292   -0.0482 C   0  0  0  0  0  0  0  0  0  0  0  0
   -1.6695    2.7310    0.0650 H   0  0  0  0  0  0  0  0  0  0  0  0
   -0.4482    3.1130   -0.9508 H   0  0  0  0  0  0  0  0  0  0  0  0
   -0.2253    3.3587    0.7226 H   0  0  0  0  0  0  0  0  0  0  0  0
   -0.1913    1.3193   -0.0042 C   0  0  0  0  0  0  0  0  0  0  0  0
    1.0578    0.8005   -0.0000 C   0  0  0  0  0  0  0  0  0  0  0  0
    1.9128    1.3106    0.0029 H   0  0  0  0  0  0  0  0  0  0  0  0
    0.9261   -0.5679    0.0003 N   0  0  0  0  0  4  0  0  0  0  0  0
    1.6827   -1.2244   -0.0002 H   0  0  0  0  0  0  0  0  0  0  0  0
   -0.3579   -0.8759    0.0020 C   0  0  0  0  0  0  0  0  0  0  0  0
   -0.7347   -1.7981    0.0039 H   0  0  0  0  0  0  0  0  0  0  0  0
   -1.0578    0.2461    0.0000 N   0  0  0  0  0  0  0  0  0  0  0  0
   -2.0540    0.3093    0.0020 H   0  0  0  0  0  0  0  0  0  0  0  0
    1.7379   -3.5697    3.0511 C   0  0  0  0  0  0  0  0  0  0  0  0
    1.2156   -4.0448    3.7468 H   0  0  0  0  0  0  0  0  0  0  0  0
    2.8003   -3.7513    3.2139 H   0  0  0  0  0  0  0  0  0  0  0  0
    1.5344   -2.4991    3.0702 H   0  0  0  0  0  0  0  0  0  0  0  0
    1.3883   -4.1605    1.6877 C   0  0  0  0  0  0  0  0  0  0  0  0
    1.2319   -3.4390    0.7005 O   0  0  0  0  0  0  0  0  0  0  0  0
    1.2695   -5.4930    1.6179 N   0  0  0  0  0  0  0  0  0  0  0  0
    0.9446   -6.1890    0.3714 C   0  0  0  0  0  0  0  0  0  0  0  0
    1.7165   -6.0896   -0.3011 H   0  0  0  0  0  0  0  0  0  0  0  0
    0.0021   -5.9080   -0.0985 H   0  0  0  0  0  0  0  0  0  0  0  0
    0.9981   -7.6649    0.7768 C   0  0  0  0  0  0  0  0  0  0  0  0
    0.3339   -8.1987    0.2594 H   0  0  0  0  0  0  0  0  0  0  0  0
    1.9125   -8.0365    0.6442 H   0  0  0  0  0  0  0  0  0  0  0  0
    0.6389   -7.6313    2.2342 C   0  0  0  0  0  0  0  0  0  0  0  0
   -0.3398   -7.5010    2.3485 H   0  0  0  0  0  0  0  0  0  0  0  0
    0.9329   -8.4679    2.6834 H   0  0  0  0  0  0  0  0  0  0  0  0
    1.4087   -6.4449    2.7328 C   0  0  0  0  0  0  0  0  0  0  0  0
    1.0096   -6.0704    3.5646 H   0  0  0  0  0  0  0  0  0  0  0  0
    2.3684   -6.6671    2.8866 H   0  0  0  0  0  0  0  0  0  0  0  0
  1  5  1  0
  5  6  2  0
  6  8  1  0
  8 10  2  0
 10 12  1  0
 12  5  1  0
  1  2  1  0
  1  3  1  0
  1  4  1  0
  6  7  1  0
  8  9  1  0
 10 11  1  0
 12 13  1  0
 14 18  1  0
 18 19  2  0
 18 20  1  0
 20 21  1  0
 21 24  1  0
 24 27  1  0
 27 30  1  0
 30 20  1  0
 14 15  1  0
 14 16  1  0
 14 17  1  0
 21 22  1  0
 21 23  1  0
 24 25  1  0
 24 26  1  0
 27 28  1  0
 27 29  1  0
 30 31  1  0
 30 32  1  0
M  CHG  1   8   1
M  END
>  <PDB_ID>  (66) 
pdb3fay

>  <RESIDUE_NAME>  (66) 
HIP   PRO

>  <FRAG_NAME>  (66) 
MIMM   N1PA

>  <FRAG_ATOM_NUM>  (66) 
fragi: 13  fragj: 19

>  <atom.prop.CHAIN_ID>  (66) 
A A A A A A A A A A A A A Z Z Z Z Z Z Z Z Z Z Z Z Z Z Z Z Z Z Z

>  <atom.prop.IS_HEAVY_ATOM>  (66) 
1 0 0 0 1 1 0 1 0 1 0 1 0 1 0 0 0 1 1 1 1 0 0 1 0 0 1 0 0 1 0 0

>  <DIFUSE_FUNC_ATOM>  (66) 
n/a

>  <FINAL_SINGLE_POINT_ENERGY>  (66) 
0

>  <NONCOV_INTER_ENERGY_QM>  (66) 
0

>  <FF_Energy>  (66) 
-13.72

>  <QM_Energy>  (66) 
-22.16

>  <Index>  (66) 
459

$$$$
MIMM-pdb4b4n-A-HIP-120:N1PA-pdb4b4n-A-PRO-123
     RDKit          3D

 32 32  0  0  0  0  0  0  0  0999 V2000
   -0.6636    2.7373    0.0359 C   0  0  0  0  0  0  0  0  0  0  0  0
    0.0460    3.2910    0.5002 H   0  0  0  0  0  0  0  0  0  0  0  0
   -1.4978    2.7710    0.6093 H   0  0  0  0  0  0  0  0  0  0  0  0
   -0.8809    3.1779   -0.9370 H   0  0  0  0  0  0  0  0  0  0  0  0
   -0.1905    1.3214   -0.0083 C   0  0  0  0  0  0  0  0  0  0  0  0
    1.0599    0.8017    0.0000 C   0  0  0  0  0  0  0  0  0  0  0  0
    1.9148    1.3107   -0.0009 H   0  0  0  0  0  0  0  0  0  0  0  0
    0.9262   -0.5669    0.0104 N   0  0  0  0  0  4  0  0  0  0  0  0
    1.6812   -1.2251    0.0214 H   0  0  0  0  0  0  0  0  0  0  0  0
   -0.3618   -0.8781    0.0013 C   0  0  0  0  0  0  0  0  0  0  0  0
   -0.7357   -1.7998   -0.0021 H   0  0  0  0  0  0  0  0  0  0  0  0
   -1.0599    0.2436   -0.0000 N   0  0  0  0  0  0  0  0  0  0  0  0
   -2.0556    0.3096    0.0037 H   0  0  0  0  0  0  0  0  0  0  0  0
   -4.9565   -0.0257   -1.9911 C   0  0  0  0  0  0  0  0  0  0  0  0
   -5.2124    0.5114   -2.8121 H   0  0  0  0  0  0  0  0  0  0  0  0
   -4.1485   -0.7180   -2.2277 H   0  0  0  0  0  0  0  0  0  0  0  0
   -5.7792   -0.6890   -1.7242 H   0  0  0  0  0  0  0  0  0  0  0  0
   -4.6236    0.9062   -0.8210 C   0  0  0  0  0  0  0  0  0  0  0  0
   -3.6680    0.6192   -0.0795 O   0  0  0  0  0  0  0  0  0  0  0  0
   -5.3393    2.0571   -0.7281 N   0  0  0  0  0  0  0  0  0  0  0  0
   -4.9813    3.0092    0.3225 C   0  0  0  0  0  0  0  0  0  0  0  0
   -4.0754    3.4504    0.1022 H   0  0  0  0  0  0  0  0  0  0  0  0
   -4.9747    2.6170    1.3395 H   0  0  0  0  0  0  0  0  0  0  0  0
   -6.0481    4.1073    0.1950 C   0  0  0  0  0  0  0  0  0  0  0  0
   -6.8878    3.8472    0.6523 H   0  0  0  0  0  0  0  0  0  0  0  0
   -5.7133    4.9750    0.5342 H   0  0  0  0  0  0  0  0  0  0  0  0
   -6.2751    4.1847   -1.3213 C   0  0  0  0  0  0  0  0  0  0  0  0
   -7.1707    4.5561   -1.5135 H   0  0  0  0  0  0  0  0  0  0  0  0
   -5.5630    4.7239   -1.7448 H   0  0  0  0  0  0  0  0  0  0  0  0
   -6.1864    2.7144   -1.7737 C   0  0  0  0  0  0  0  0  0  0  0  0
   -7.0911    2.2961   -1.8015 H   0  0  0  0  0  0  0  0  0  0  0  0
   -5.7515    2.6435   -2.6686 H   0  0  0  0  0  0  0  0  0  0  0  0
  1  5  1  0
  5  6  2  0
  6  8  1  0
  8 10  2  0
 10 12  1  0
 12  5  1  0
  1  2  1  0
  1  3  1  0
  1  4  1  0
  6  7  1  0
  8  9  1  0
 10 11  1  0
 12 13  1  0
 14 18  1  0
 18 19  2  0
 18 20  1  0
 20 21  1  0
 21 24  1  0
 24 27  1  0
 27 30  1  0
 30 20  1  0
 14 15  1  0
 14 16  1  0
 14 17  1  0
 21 22  1  0
 21 23  1  0
 24 25  1  0
 24 26  1  0
 27 28  1  0
 27 29  1  0
 30 31  1  0
 30 32  1  0
M  CHG  1   8   1
M  END
>  <PDB_ID>  (67) 
pdb4b4n

>  <RESIDUE_NAME>  (67) 
HIP   PRO

>  <FRAG_NAME>  (67) 
MIMM   N1PA

>  <FRAG_ATOM_NUM>  (67) 
fragi: 13  fragj: 19

>  <atom.prop.CHAIN_ID>  (67) 
A A A A A A A A A A A A A Z Z Z Z Z Z Z Z Z Z Z Z Z Z Z Z Z Z Z

>  <atom.prop.IS_HEAVY_ATOM>  (67) 
1 0 0 0 1 1 0 1 0 1 0 1 0 1 0 0 0 1 1 1 1 0 0 1 0 0 1 0 0 1 0 0

>  <DIFUSE_FUNC_ATOM>  (67) 
n/a

>  <FINAL_SINGLE_POINT_ENERGY>  (67) 
0

>  <NONCOV_INTER_ENERGY_QM>  (67) 
0

>  <FF_Energy>  (67) 
-18.19

>  <QM_Energy>  (67) 
-26.19

>  <Index>  (67) 
460

$$$$
MIMM-pdb3fs2-B-HIP-241:N1PA-pdb3fs2-B-PRO-244
     RDKit          3D

 32 32  0  0  0  0  0  0  0  0999 V2000
   -0.6715    2.7354    0.0050 C   0  0  0  0  0  0  0  0  0  0  0  0
   -0.0847    3.2704    0.6220 H   0  0  0  0  0  0  0  0  0  0  0  0
   -1.6113    2.7542    0.3622 H   0  0  0  0  0  0  0  0  0  0  0  0
   -0.6621    3.2010   -0.9805 H   0  0  0  0  0  0  0  0  0  0  0  0
   -0.1937    1.3209    0.0046 C   0  0  0  0  0  0  0  0  0  0  0  0
    1.0560    0.8027    0.0000 C   0  0  0  0  0  0  0  0  0  0  0  0
    1.9107    1.3129    0.0030 H   0  0  0  0  0  0  0  0  0  0  0  0
    0.9277   -0.5692   -0.0076 N   0  0  0  0  0  4  0  0  0  0  0  0
    1.6857   -1.2231   -0.0174 H   0  0  0  0  0  0  0  0  0  0  0  0
   -0.3568   -0.8800   -0.0013 C   0  0  0  0  0  0  0  0  0  0  0  0
   -0.7340   -1.8000    0.0030 H   0  0  0  0  0  0  0  0  0  0  0  0
   -1.0560    0.2457   -0.0000 N   0  0  0  0  0  0  0  0  0  0  0  0
   -2.0538    0.3058   -0.0022 H   0  0  0  0  0  0  0  0  0  0  0  0
   -4.5279   -0.4807   -0.7634 C   0  0  0  0  0  0  0  0  0  0  0  0
   -5.4213   -0.0994   -1.0053 H   0  0  0  0  0  0  0  0  0  0  0  0
   -3.7938   -0.0270   -1.4292 H   0  0  0  0  0  0  0  0  0  0  0  0
   -4.4959   -1.5645   -0.8754 H   0  0  0  0  0  0  0  0  0  0  0  0
   -4.2436   -0.0709    0.6882 C   0  0  0  0  0  0  0  0  0  0  0  0
   -3.8246   -0.9043    1.5020 O   0  0  0  0  0  0  0  0  0  0  0  0
   -4.4993    1.2088    1.0251 N   0  0  0  0  0  0  0  0  0  0  0  0
   -4.0217    1.7698    2.3020 C   0  0  0  0  0  0  0  0  0  0  0  0
   -2.9961    1.8057    2.3059 H   0  0  0  0  0  0  0  0  0  0  0  0
   -4.3860    1.2691    3.1991 H   0  0  0  0  0  0  0  0  0  0  0  0
   -4.5300    3.2175    2.2731 C   0  0  0  0  0  0  0  0  0  0  0  0
   -5.3412    3.3118    2.8710 H   0  0  0  0  0  0  0  0  0  0  0  0
   -3.8173    3.8422    2.6244 H   0  0  0  0  0  0  0  0  0  0  0  0
   -4.8568    3.5029    0.8709 C   0  0  0  0  0  0  0  0  0  0  0  0
   -5.6142    4.1761    0.8052 H   0  0  0  0  0  0  0  0  0  0  0  0
   -4.0594    3.9057    0.3877 H   0  0  0  0  0  0  0  0  0  0  0  0
   -5.2520    2.2050    0.2413 C   0  0  0  0  0  0  0  0  0  0  0  0
   -6.2353    2.0390    0.3195 H   0  0  0  0  0  0  0  0  0  0  0  0
   -4.9850    2.1646   -0.7229 H   0  0  0  0  0  0  0  0  0  0  0  0
  1  5  1  0
  5  6  2  0
  6  8  1  0
  8 10  2  0
 10 12  1  0
 12  5  1  0
  1  2  1  0
  1  3  1  0
  1  4  1  0
  6  7  1  0
  8  9  1  0
 10 11  1  0
 12 13  1  0
 14 18  1  0
 18 19  2  0
 18 20  1  0
 20 21  1  0
 21 24  1  0
 24 27  1  0
 27 30  1  0
 30 20  1  0
 14 15  1  0
 14 16  1  0
 14 17  1  0
 21 22  1  0
 21 23  1  0
 24 25  1  0
 24 26  1  0
 27 28  1  0
 27 29  1  0
 30 31  1  0
 30 32  1  0
M  CHG  1   8   1
M  END
>  <PDB_ID>  (68) 
pdb3fs2

>  <RESIDUE_NAME>  (68) 
HIP   PRO

>  <FRAG_NAME>  (68) 
MIMM   N1PA

>  <FRAG_ATOM_NUM>  (68) 
fragi: 13  fragj: 19

>  <atom.prop.CHAIN_ID>  (68) 
A A A A A A A A A A A A A Z Z Z Z Z Z Z Z Z Z Z Z Z Z Z Z Z Z Z

>  <atom.prop.IS_HEAVY_ATOM>  (68) 
1 0 0 0 1 1 0 1 0 1 0 1 0 1 0 0 0 1 1 1 1 0 0 1 0 0 1 0 0 1 0 0

>  <DIFUSE_FUNC_ATOM>  (68) 
n/a

>  <FINAL_SINGLE_POINT_ENERGY>  (68) 
0

>  <NONCOV_INTER_ENERGY_QM>  (68) 
0

>  <FF_Energy>  (68) 
-4.13

>  <QM_Energy>  (68) 
-10.52

>  <Index>  (68) 
467

$$$$
MIMM-pdb4b2n-A-HIP-71:N1PA-pdb4b2n-A-PRO-83
     RDKit          3D

 32 32  0  0  0  0  0  0  0  0999 V2000
   -0.6482    2.7434    0.0164 C   0  0  0  0  0  0  0  0  0  0  0  0
   -1.4003    2.8653   -0.6288 H   0  0  0  0  0  0  0  0  0  0  0  0
    0.1178    3.3289   -0.2434 H   0  0  0  0  0  0  0  0  0  0  0  0
   -0.9873    3.0283    1.0124 H   0  0  0  0  0  0  0  0  0  0  0  0
   -0.1957    1.3117   -0.0432 C   0  0  0  0  0  0  0  0  0  0  0  0
    1.0736    0.7633   -0.0000 C   0  0  0  0  0  0  0  0  0  0  0  0
    1.9187    1.2972    0.0443 H   0  0  0  0  0  0  0  0  0  0  0  0
    0.9393   -0.5643   -0.0274 N   0  0  0  0  0  4  0  0  0  0  0  0
    1.6768   -1.2486   -0.0790 H   0  0  0  0  0  0  0  0  0  0  0  0
   -0.3661   -0.8795    0.0233 C   0  0  0  0  0  0  0  0  0  0  0  0
   -0.7436   -1.7844    0.0705 H   0  0  0  0  0  0  0  0  0  0  0  0
   -1.0736    0.2737   -0.0000 N   0  0  0  0  0  0  0  0  0  0  0  0
   -2.0622    0.3271    0.0119 H   0  0  0  0  0  0  0  0  0  0  0  0
    6.3135    1.3301    1.2271 C   0  0  0  0  0  0  0  0  0  0  0  0
    6.8838    2.1301    1.3423 H   0  0  0  0  0  0  0  0  0  0  0  0
    5.7739    1.0991    2.1456 H   0  0  0  0  0  0  0  0  0  0  0  0
    6.8533    0.4053    1.0233 H   0  0  0  0  0  0  0  0  0  0  0  0
    5.2738    1.5500    0.1083 C   0  0  0  0  0  0  0  0  0  0  0  0
    4.2200    0.9440    0.1438 O   0  0  0  0  0  0  0  0  0  0  0  0
    5.5577    2.4477   -0.8443 N   0  0  0  0  0  0  0  0  0  0  0  0
    4.6249    2.7670   -1.9086 C   0  0  0  0  0  0  0  0  0  0  0  0
    3.7577    3.1082   -1.5426 H   0  0  0  0  0  0  0  0  0  0  0  0
    4.4642    1.8808   -2.5225 H   0  0  0  0  0  0  0  0  0  0  0  0
    5.3361    3.8406   -2.7066 C   0  0  0  0  0  0  0  0  0  0  0  0
    5.2176    3.6929   -3.7023 H   0  0  0  0  0  0  0  0  0  0  0  0
    4.9670    4.7589   -2.4916 H   0  0  0  0  0  0  0  0  0  0  0  0
    6.7933    3.7659   -2.3401 C   0  0  0  0  0  0  0  0  0  0  0  0
    7.2804    3.1517   -2.9631 H   0  0  0  0  0  0  0  0  0  0  0  0
    7.2108    4.6744   -2.3787 H   0  0  0  0  0  0  0  0  0  0  0  0
    6.8168    3.2238   -0.9234 C   0  0  0  0  0  0  0  0  0  0  0  0
    7.6033    2.6303   -0.7756 H   0  0  0  0  0  0  0  0  0  0  0  0
    6.8162    3.9625   -0.2533 H   0  0  0  0  0  0  0  0  0  0  0  0
  1  5  1  0
  5  6  2  0
  6  8  1  0
  8 10  2  0
 10 12  1  0
 12  5  1  0
  1  2  1  0
  1  3  1  0
  1  4  1  0
  6  7  1  0
  8  9  1  0
 10 11  1  0
 12 13  1  0
 14 18  1  0
 18 19  2  0
 18 20  1  0
 20 21  1  0
 21 24  1  0
 24 27  1  0
 27 30  1  0
 30 20  1  0
 14 15  1  0
 14 16  1  0
 14 17  1  0
 21 22  1  0
 21 23  1  0
 24 25  1  0
 24 26  1  0
 27 28  1  0
 27 29  1  0
 30 31  1  0
 30 32  1  0
M  CHG  1   8   1
M  END
>  <PDB_ID>  (69) 
pdb4b2n

>  <RESIDUE_NAME>  (69) 
HIP   PRO

>  <FRAG_NAME>  (69) 
MIMM   N1PA

>  <FRAG_ATOM_NUM>  (69) 
fragi: 13  fragj: 19

>  <atom.prop.CHAIN_ID>  (69) 
A A A A A A A A A A A A A Z Z Z Z Z Z Z Z Z Z Z Z Z Z Z Z Z Z Z

>  <atom.prop.IS_HEAVY_ATOM>  (69) 
1 0 0 0 1 1 0 1 0 1 0 1 0 1 0 0 0 1 1 1 1 0 0 1 0 0 1 0 0 1 0 0

>  <DIFUSE_FUNC_ATOM>  (69) 
n/a

>  <FINAL_SINGLE_POINT_ENERGY>  (69) 
0

>  <NONCOV_INTER_ENERGY_QM>  (69) 
0

>  <FF_Energy>  (69) 
-10.53

>  <QM_Energy>  (69) 
-16.09

>  <Index>  (69) 
469

$$$$
MIMM-pdb4b2n-A-HIP-517:N1PA-pdb4b2n-A-PRO-430
     RDKit          3D

 32 32  0  0  0  0  0  0  0  0999 V2000
   -0.5710    2.7775    0.0411 C   0  0  0  0  0  0  0  0  0  0  0  0
    0.1642    3.2969    0.4932 H   0  0  0  0  0  0  0  0  0  0  0  0
   -1.4027    2.8526    0.6037 H   0  0  0  0  0  0  0  0  0  0  0  0
   -0.7611    3.2008   -0.9452 H   0  0  0  0  0  0  0  0  0  0  0  0
   -0.1654    1.3357    0.0057 C   0  0  0  0  0  0  0  0  0  0  0  0
    1.0865    0.7648    0.0000 C   0  0  0  0  0  0  0  0  0  0  0  0
    1.9490    1.2738    0.0027 H   0  0  0  0  0  0  0  0  0  0  0  0
    0.9358   -0.5855   -0.0080 N   0  0  0  0  0  4  0  0  0  0  0  0
    1.6637   -1.2704   -0.0180 H   0  0  0  0  0  0  0  0  0  0  0  0
   -0.3876   -0.8875   -0.0016 C   0  0  0  0  0  0  0  0  0  0  0  0
   -0.7703   -1.7901    0.0023 H   0  0  0  0  0  0  0  0  0  0  0  0
   -1.0865    0.2751   -0.0000 N   0  0  0  0  0  0  0  0  0  0  0  0
   -2.0626    0.3583   -0.0029 H   0  0  0  0  0  0  0  0  0  0  0  0
    0.3793   -4.8426   -1.1169 C   0  0  0  0  0  0  0  0  0  0  0  0
    0.4540   -5.8270   -1.3109 H   0  0  0  0  0  0  0  0  0  0  0  0
   -0.6722   -4.5776   -1.2270 H   0  0  0  0  0  0  0  0  0  0  0  0
    1.0137   -4.2843   -1.8053 H   0  0  0  0  0  0  0  0  0  0  0  0
    0.8367   -4.6247    0.3068 C   0  0  0  0  0  0  0  0  0  0  0  0
    0.7348   -3.4912    0.8512 O   0  0  0  0  0  0  0  0  0  0  0  0
    1.3584   -5.6742    0.9188 N   0  0  0  0  0  0  0  0  0  0  0  0
    1.6742   -5.5383    2.3508 C   0  0  0  0  0  0  0  0  0  0  0  0
    0.9509   -4.9687    2.8118 H   0  0  0  0  0  0  0  0  0  0  0  0
    2.6682   -5.1573    2.5852 H   0  0  0  0  0  0  0  0  0  0  0  0
    1.6289   -6.9728    2.8451 C   0  0  0  0  0  0  0  0  0  0  0  0
    2.2391   -7.1080    3.6219 H   0  0  0  0  0  0  0  0  0  0  0  0
    0.7014   -7.2435    3.0894 H   0  0  0  0  0  0  0  0  0  0  0  0
    2.1117   -7.7582    1.6520 C   0  0  0  0  0  0  0  0  0  0  0  0
    3.1180   -7.7722    1.6291 H   0  0  0  0  0  0  0  0  0  0  0  0
    1.7832   -8.7095    1.7064 H   0  0  0  0  0  0  0  0  0  0  0  0
    1.5560   -7.0664    0.4303 C   0  0  0  0  0  0  0  0  0  0  0  0
    2.2027   -7.0784   -0.3238 H   0  0  0  0  0  0  0  0  0  0  0  0
    0.6872   -7.4598    0.1488 H   0  0  0  0  0  0  0  0  0  0  0  0
  1  5  1  0
  5  6  2  0
  6  8  1  0
  8 10  2  0
 10 12  1  0
 12  5  1  0
  1  2  1  0
  1  3  1  0
  1  4  1  0
  6  7  1  0
  8  9  1  0
 10 11  1  0
 12 13  1  0
 14 18  1  0
 18 19  2  0
 18 20  1  0
 20 21  1  0
 21 24  1  0
 24 27  1  0
 27 30  1  0
 30 20  1  0
 14 15  1  0
 14 16  1  0
 14 17  1  0
 21 22  1  0
 21 23  1  0
 24 25  1  0
 24 26  1  0
 27 28  1  0
 27 29  1  0
 30 31  1  0
 30 32  1  0
M  CHG  1   8   1
M  END
>  <PDB_ID>  (70) 
pdb4b2n

>  <RESIDUE_NAME>  (70) 
HIP   PRO

>  <FRAG_NAME>  (70) 
MIMM   N1PA

>  <FRAG_ATOM_NUM>  (70) 
fragi: 13  fragj: 19

>  <atom.prop.CHAIN_ID>  (70) 
A A A A A A A A A A A A A Z Z Z Z Z Z Z Z Z Z Z Z Z Z Z Z Z Z Z

>  <atom.prop.IS_HEAVY_ATOM>  (70) 
1 0 0 0 1 1 0 1 0 1 0 1 0 1 0 0 0 1 1 1 1 0 0 1 0 0 1 0 0 1 0 0

>  <DIFUSE_FUNC_ATOM>  (70) 
n/a

>  <FINAL_SINGLE_POINT_ENERGY>  (70) 
0

>  <NONCOV_INTER_ENERGY_QM>  (70) 
0

>  <FF_Energy>  (70) 
-12.28

>  <QM_Energy>  (70) 
-22.3

>  <Index>  (70) 
470

$$$$
MIMM-pdb4b2n-B-HIP-71:N1PA-pdb4b2n-B-PRO-83
     RDKit          3D

 32 32  0  0  0  0  0  0  0  0999 V2000
   -0.6359    2.7355   -0.0538 C   0  0  0  0  0  0  0  0  0  0  0  0
   -1.4419    2.8331   -0.6325 H   0  0  0  0  0  0  0  0  0  0  0  0
    0.1046    3.3042   -0.4042 H   0  0  0  0  0  0  0  0  0  0  0  0
   -0.8809    3.0511    0.9604 H   0  0  0  0  0  0  0  0  0  0  0  0
   -0.1963    1.3092   -0.0877 C   0  0  0  0  0  0  0  0  0  0  0  0
    1.0717    0.7610    0.0000 C   0  0  0  0  0  0  0  0  0  0  0  0
    1.9160    1.2980    0.0614 H   0  0  0  0  0  0  0  0  0  0  0  0
    0.9457   -0.5723   -0.0115 N   0  0  0  0  0  4  0  0  0  0  0  0
    1.6809   -1.2526   -0.0527 H   0  0  0  0  0  0  0  0  0  0  0  0
   -0.3655   -0.8870    0.0409 C   0  0  0  0  0  0  0  0  0  0  0  0
   -0.7494   -1.7825    0.0992 H   0  0  0  0  0  0  0  0  0  0  0  0
   -1.0717    0.2846   -0.0000 N   0  0  0  0  0  0  0  0  0  0  0  0
   -2.0615    0.3322    0.0311 H   0  0  0  0  0  0  0  0  0  0  0  0
    6.3203    1.1729    0.8869 C   0  0  0  0  0  0  0  0  0  0  0  0
    6.9527    1.9359    0.9718 H   0  0  0  0  0  0  0  0  0  0  0  0
    5.8007    0.9992    1.8292 H   0  0  0  0  0  0  0  0  0  0  0  0
    6.8434    0.2340    0.7058 H   0  0  0  0  0  0  0  0  0  0  0  0
    5.2868    1.4326   -0.2204 C   0  0  0  0  0  0  0  0  0  0  0  0
    4.1608    0.8760   -0.1647 O   0  0  0  0  0  0  0  0  0  0  0  0
    5.6336    2.2656   -1.2185 N   0  0  0  0  0  0  0  0  0  0  0  0
    4.6735    2.5161   -2.2787 C   0  0  0  0  0  0  0  0  0  0  0  0
    3.8324    2.9424   -1.9189 H   0  0  0  0  0  0  0  0  0  0  0  0
    4.4264    1.6040   -2.8222 H   0  0  0  0  0  0  0  0  0  0  0  0
    5.3848    3.5231   -3.2048 C   0  0  0  0  0  0  0  0  0  0  0  0
    5.2063    3.3232   -4.1548 H   0  0  0  0  0  0  0  0  0  0  0  0
    5.1429    4.4519   -2.9767 H   0  0  0  0  0  0  0  0  0  0  0  0
    6.8728    3.2708   -2.8833 C   0  0  0  0  0  0  0  0  0  0  0  0
    7.1869    2.4717   -3.3837 H   0  0  0  0  0  0  0  0  0  0  0  0
    7.4030    4.0715   -3.1356 H   0  0  0  0  0  0  0  0  0  0  0  0
    6.8827    3.0392   -1.3989 C   0  0  0  0  0  0  0  0  0  0  0  0
    7.6671    2.5031   -1.1162 H   0  0  0  0  0  0  0  0  0  0  0  0
    6.8395    3.8919   -0.8932 H   0  0  0  0  0  0  0  0  0  0  0  0
  1  5  1  0
  5  6  2  0
  6  8  1  0
  8 10  2  0
 10 12  1  0
 12  5  1  0
  1  2  1  0
  1  3  1  0
  1  4  1  0
  6  7  1  0
  8  9  1  0
 10 11  1  0
 12 13  1  0
 14 18  1  0
 18 19  2  0
 18 20  1  0
 20 21  1  0
 21 24  1  0
 24 27  1  0
 27 30  1  0
 30 20  1  0
 14 15  1  0
 14 16  1  0
 14 17  1  0
 21 22  1  0
 21 23  1  0
 24 25  1  0
 24 26  1  0
 27 28  1  0
 27 29  1  0
 30 31  1  0
 30 32  1  0
M  CHG  1   8   1
M  END
>  <PDB_ID>  (71) 
pdb4b2n

>  <RESIDUE_NAME>  (71) 
HIP   PRO

>  <FRAG_NAME>  (71) 
MIMM   N1PA

>  <FRAG_ATOM_NUM>  (71) 
fragi: 13  fragj: 19

>  <atom.prop.CHAIN_ID>  (71) 
A A A A A A A A A A A A A Z Z Z Z Z Z Z Z Z Z Z Z Z Z Z Z Z Z Z

>  <atom.prop.IS_HEAVY_ATOM>  (71) 
1 0 0 0 1 1 0 1 0 1 0 1 0 1 0 0 0 1 1 1 1 0 0 1 0 0 1 0 0 1 0 0

>  <DIFUSE_FUNC_ATOM>  (71) 
n/a

>  <FINAL_SINGLE_POINT_ENERGY>  (71) 
0

>  <NONCOV_INTER_ENERGY_QM>  (71) 
0

>  <FF_Energy>  (71) 
-10.7

>  <QM_Energy>  (71) 
-17.12

>  <Index>  (71) 
471

$$$$
MIMM-pdb4b2n-B-HIP-517:N1PA-pdb4b2n-B-PRO-430
     RDKit          3D

 32 32  0  0  0  0  0  0  0  0999 V2000
   -0.6591    2.7439    0.0873 C   0  0  0  0  0  0  0  0  0  0  0  0
    0.0280    3.2638    0.6113 H   0  0  0  0  0  0  0  0  0  0  0  0
   -1.5265    2.7647    0.6031 H   0  0  0  0  0  0  0  0  0  0  0  0
   -0.8061    3.2162   -0.8840 H   0  0  0  0  0  0  0  0  0  0  0  0
   -0.2013    1.3188    0.0092 C   0  0  0  0  0  0  0  0  0  0  0  0
    1.0649    0.7839    0.0000 C   0  0  0  0  0  0  0  0  0  0  0  0
    1.9125    1.3112    0.0035 H   0  0  0  0  0  0  0  0  0  0  0  0
    0.9409   -0.5678   -0.0136 N   0  0  0  0  0  4  0  0  0  0  0  0
    1.6828   -1.2363   -0.0298 H   0  0  0  0  0  0  0  0  0  0  0  0
   -0.3662   -0.8803   -0.0023 C   0  0  0  0  0  0  0  0  0  0  0  0
   -0.7396   -1.7939    0.0044 H   0  0  0  0  0  0  0  0  0  0  0  0
   -1.0649    0.2591   -0.0000 N   0  0  0  0  0  0  0  0  0  0  0  0
   -2.0623    0.3155   -0.0048 H   0  0  0  0  0  0  0  0  0  0  0  0
    0.5883   -4.8196   -1.2664 C   0  0  0  0  0  0  0  0  0  0  0  0
    0.7359   -5.8042   -1.4636 H   0  0  0  0  0  0  0  0  0  0  0  0
   -0.4662   -4.6041   -1.4387 H   0  0  0  0  0  0  0  0  0  0  0  0
    1.2325   -4.2866   -1.9657 H   0  0  0  0  0  0  0  0  0  0  0  0
    1.0087   -4.5971    0.1851 C   0  0  0  0  0  0  0  0  0  0  0  0
    0.7694   -3.5283    0.7644 O   0  0  0  0  0  0  0  0  0  0  0  0
    1.5157   -5.6631    0.8285 N   0  0  0  0  0  0  0  0  0  0  0  0
    1.6840   -5.6409    2.2779 C   0  0  0  0  0  0  0  0  0  0  0  0
    0.9231   -5.1297    2.7224 H   0  0  0  0  0  0  0  0  0  0  0  0
    2.6424   -5.2383    2.6053 H   0  0  0  0  0  0  0  0  0  0  0  0
    1.6296   -7.1287    2.6224 C   0  0  0  0  0  0  0  0  0  0  0  0
    2.1477   -7.3239    3.4488 H   0  0  0  0  0  0  0  0  0  0  0  0
    0.6908   -7.4400    2.7207 H   0  0  0  0  0  0  0  0  0  0  0  0
    2.2813   -7.7732    1.4217 C   0  0  0  0  0  0  0  0  0  0  0  0
    3.2756   -7.6919    1.4845 H   0  0  0  0  0  0  0  0  0  0  0  0
    2.0278   -8.7390    1.3700 H   0  0  0  0  0  0  0  0  0  0  0  0
    1.7445   -7.0051    0.2483 C   0  0  0  0  0  0  0  0  0  0  0  0
    2.4070   -6.9546   -0.4928 H   0  0  0  0  0  0  0  0  0  0  0  0
    0.8881   -7.3909   -0.0842 H   0  0  0  0  0  0  0  0  0  0  0  0
  1  5  1  0
  5  6  2  0
  6  8  1  0
  8 10  2  0
 10 12  1  0
 12  5  1  0
  1  2  1  0
  1  3  1  0
  1  4  1  0
  6  7  1  0
  8  9  1  0
 10 11  1  0
 12 13  1  0
 14 18  1  0
 18 19  2  0
 18 20  1  0
 20 21  1  0
 21 24  1  0
 24 27  1  0
 27 30  1  0
 30 20  1  0
 14 15  1  0
 14 16  1  0
 14 17  1  0
 21 22  1  0
 21 23  1  0
 24 25  1  0
 24 26  1  0
 27 28  1  0
 27 29  1  0
 30 31  1  0
 30 32  1  0
M  CHG  1   8   1
M  END
>  <PDB_ID>  (72) 
pdb4b2n

>  <RESIDUE_NAME>  (72) 
HIP   PRO

>  <FRAG_NAME>  (72) 
MIMM   N1PA

>  <FRAG_ATOM_NUM>  (72) 
fragi: 13  fragj: 19

>  <atom.prop.CHAIN_ID>  (72) 
A A A A A A A A A A A A A Z Z Z Z Z Z Z Z Z Z Z Z Z Z Z Z Z Z Z

>  <atom.prop.IS_HEAVY_ATOM>  (72) 
1 0 0 0 1 1 0 1 0 1 0 1 0 1 0 0 0 1 1 1 1 0 0 1 0 0 1 0 0 1 0 0

>  <DIFUSE_FUNC_ATOM>  (72) 
n/a

>  <FINAL_SINGLE_POINT_ENERGY>  (72) 
0

>  <NONCOV_INTER_ENERGY_QM>  (72) 
0

>  <FF_Energy>  (72) 
-12.13

>  <QM_Energy>  (72) 
-21.41

>  <Index>  (72) 
472

$$$$
MIMM-pdb4c45-A-HIP-81:N1PA-pdb4c45-A-PRO-65
     RDKit          3D

 32 32  0  0  0  0  0  0  0  0999 V2000
   -0.6550    2.7605    0.0319 C   0  0  0  0  0  0  0  0  0  0  0  0
   -1.6371    2.7817   -0.1600 H   0  0  0  0  0  0  0  0  0  0  0  0
   -0.1676    3.2685   -0.6798 H   0  0  0  0  0  0  0  0  0  0  0  0
   -0.4811    3.2573    0.9864 H   0  0  0  0  0  0  0  0  0  0  0  0
   -0.1895    1.3243    0.0010 C   0  0  0  0  0  0  0  0  0  0  0  0
    1.0572    0.7995    0.0000 C   0  0  0  0  0  0  0  0  0  0  0  0
    1.9154    1.3084   -0.0008 H   0  0  0  0  0  0  0  0  0  0  0  0
    0.9277   -0.5709    0.0023 N   0  0  0  0  0  4  0  0  0  0  0  0
    1.6816   -1.2269    0.0055 H   0  0  0  0  0  0  0  0  0  0  0  0
   -0.3615   -0.8801   -0.0015 C   0  0  0  0  0  0  0  0  0  0  0  0
   -0.7382   -1.7994   -0.0034 H   0  0  0  0  0  0  0  0  0  0  0  0
   -1.0572    0.2464    0.0000 N   0  0  0  0  0  0  0  0  0  0  0  0
   -2.0538    0.3122   -0.0004 H   0  0  0  0  0  0  0  0  0  0  0  0
   -4.6154   -4.1173   -0.2581 C   0  0  0  0  0  0  0  0  0  0  0  0
   -5.1654   -4.9749   -0.2339 H   0  0  0  0  0  0  0  0  0  0  0  0
   -5.1175   -3.3827    0.3716 H   0  0  0  0  0  0  0  0  0  0  0  0
   -4.6241   -3.7843   -1.2960 H   0  0  0  0  0  0  0  0  0  0  0  0
   -3.2042   -4.4397    0.1802 C   0  0  0  0  0  0  0  0  0  0  0  0
   -2.4225   -3.5410    0.5252 O   0  0  0  0  0  0  0  0  0  0  0  0
   -2.8627   -5.7460    0.1377 N   0  0  0  0  0  0  0  0  0  0  0  0
   -1.5223   -6.1684    0.5124 C   0  0  0  0  0  0  0  0  0  0  0  0
   -1.2364   -5.7331    1.3821 H   0  0  0  0  0  0  0  0  0  0  0  0
   -0.7922   -5.9670   -0.2715 H   0  0  0  0  0  0  0  0  0  0  0  0
   -1.6755   -7.6938    0.6880 C   0  0  0  0  0  0  0  0  0  0  0  0
   -0.8218   -8.1598    0.4541 H   0  0  0  0  0  0  0  0  0  0  0  0
   -1.9266   -7.9138    1.6307 H   0  0  0  0  0  0  0  0  0  0  0  0
   -2.7721   -8.0705   -0.2633 C   0  0  0  0  0  0  0  0  0  0  0  0
   -2.4062   -8.2325   -1.1804 H   0  0  0  0  0  0  0  0  0  0  0  0
   -3.2489   -8.8914    0.0534 H   0  0  0  0  0  0  0  0  0  0  0  0
   -3.7196   -6.8738   -0.2724 C   0  0  0  0  0  0  0  0  0  0  0  0
   -4.0929   -6.7215   -1.1858 H   0  0  0  0  0  0  0  0  0  0  0  0
   -4.4680   -7.0067    0.3775 H   0  0  0  0  0  0  0  0  0  0  0  0
  1  5  1  0
  5  6  2  0
  6  8  1  0
  8 10  2  0
 10 12  1  0
 12  5  1  0
  1  2  1  0
  1  3  1  0
  1  4  1  0
  6  7  1  0
  8  9  1  0
 10 11  1  0
 12 13  1  0
 14 18  1  0
 18 19  2  0
 18 20  1  0
 20 21  1  0
 21 24  1  0
 24 27  1  0
 27 30  1  0
 30 20  1  0
 14 15  1  0
 14 16  1  0
 14 17  1  0
 21 22  1  0
 21 23  1  0
 24 25  1  0
 24 26  1  0
 27 28  1  0
 27 29  1  0
 30 31  1  0
 30 32  1  0
M  CHG  1   8   1
M  END
>  <PDB_ID>  (73) 
pdb4c45

>  <RESIDUE_NAME>  (73) 
HIP   PRO

>  <FRAG_NAME>  (73) 
MIMM   N1PA

>  <FRAG_ATOM_NUM>  (73) 
fragi: 13  fragj: 19

>  <atom.prop.CHAIN_ID>  (73) 
A A A A A A A A A A A A A Z Z Z Z Z Z Z Z Z Z Z Z Z Z Z Z Z Z Z

>  <atom.prop.IS_HEAVY_ATOM>  (73) 
1 0 0 0 1 1 0 1 0 1 0 1 0 1 0 0 0 1 1 1 1 0 0 1 0 0 1 0 0 1 0 0

>  <DIFUSE_FUNC_ATOM>  (73) 
n/a

>  <FINAL_SINGLE_POINT_ENERGY>  (73) 
0

>  <NONCOV_INTER_ENERGY_QM>  (73) 
0

>  <FF_Energy>  (73) 
-10.35

>  <QM_Energy>  (73) 
-16.79

>  <Index>  (73) 
473

$$$$
MIMM-pdb4ccw-A-HIP-274:N1PA-pdb4ccw-A-PRO-155
     RDKit          3D

 32 32  0  0  0  0  0  0  0  0999 V2000
   -0.6853    2.7420    0.0062 C   0  0  0  0  0  0  0  0  0  0  0  0
   -1.2068    2.9040   -0.8408 H   0  0  0  0  0  0  0  0  0  0  0  0
    0.1267    3.3371   -0.0042 H   0  0  0  0  0  0  0  0  0  0  0  0
   -1.3069    3.0051    0.8621 H   0  0  0  0  0  0  0  0  0  0  0  0
   -0.2185    1.3141    0.0033 C   0  0  0  0  0  0  0  0  0  0  0  0
    1.0693    0.7760   -0.0000 C   0  0  0  0  0  0  0  0  0  0  0  0
    1.9044    1.3190    0.0030 H   0  0  0  0  0  0  0  0  0  0  0  0
    0.9465   -0.5612   -0.0069 N   0  0  0  0  0  4  0  0  0  0  0  0
    1.6918   -1.2353   -0.0162 H   0  0  0  0  0  0  0  0  0  0  0  0
   -0.3539   -0.8805   -0.0008 C   0  0  0  0  0  0  0  0  0  0  0  0
   -0.7280   -1.7927    0.0036 H   0  0  0  0  0  0  0  0  0  0  0  0
   -1.0693    0.2638    0.0000 N   0  0  0  0  0  0  0  0  0  0  0  0
   -2.0659    0.2998   -0.0024 H   0  0  0  0  0  0  0  0  0  0  0  0
   -3.5781   -1.7600    3.1948 C   0  0  0  0  0  0  0  0  0  0  0  0
   -4.4302   -1.6154    2.6828 H   0  0  0  0  0  0  0  0  0  0  0  0
   -3.8331   -1.8909    4.2465 H   0  0  0  0  0  0  0  0  0  0  0  0
   -2.8925   -0.9207    3.0782 H   0  0  0  0  0  0  0  0  0  0  0  0
   -2.8974   -3.0243    2.6166 C   0  0  0  0  0  0  0  0  0  0  0  0
   -1.8013   -2.9376    2.0571 O   0  0  0  0  0  0  0  0  0  0  0  0
   -3.5382   -4.2040    2.7612 N   0  0  0  0  0  0  0  0  0  0  0  0
   -2.8459   -5.4482    2.3913 C   0  0  0  0  0  0  0  0  0  0  0  0
   -2.0136   -5.5730    2.9692 H   0  0  0  0  0  0  0  0  0  0  0  0
   -2.5903   -5.5217    1.3342 H   0  0  0  0  0  0  0  0  0  0  0  0
   -3.8649   -6.5314    2.7303 C   0  0  0  0  0  0  0  0  0  0  0  0
   -3.8288   -7.2805    2.0645 H   0  0  0  0  0  0  0  0  0  0  0  0
   -3.7052   -6.9014    3.6476 H   0  0  0  0  0  0  0  0  0  0  0  0
   -5.2046   -5.8354    2.6674 C   0  0  0  0  0  0  0  0  0  0  0  0
   -5.5228   -5.7839    1.7263 H   0  0  0  0  0  0  0  0  0  0  0  0
   -5.8688   -6.3169    3.2302 H   0  0  0  0  0  0  0  0  0  0  0  0
   -4.9138   -4.4634    3.2201 C   0  0  0  0  0  0  0  0  0  0  0  0
   -5.5420   -3.7810    2.8507 H   0  0  0  0  0  0  0  0  0  0  0  0
   -4.9595   -4.4549    4.2187 H   0  0  0  0  0  0  0  0  0  0  0  0
  1  5  1  0
  5  6  2  0
  6  8  1  0
  8 10  2  0
 10 12  1  0
 12  5  1  0
  1  2  1  0
  1  3  1  0
  1  4  1  0
  6  7  1  0
  8  9  1  0
 10 11  1  0
 12 13  1  0
 14 18  1  0
 18 19  2  0
 18 20  1  0
 20 21  1  0
 21 24  1  0
 24 27  1  0
 27 30  1  0
 30 20  1  0
 14 15  1  0
 14 16  1  0
 14 17  1  0
 21 22  1  0
 21 23  1  0
 24 25  1  0
 24 26  1  0
 27 28  1  0
 27 29  1  0
 30 31  1  0
 30 32  1  0
M  CHG  1   8   1
M  END
>  <PDB_ID>  (74) 
pdb4ccw

>  <RESIDUE_NAME>  (74) 
HIP   PRO

>  <FRAG_NAME>  (74) 
MIMM   N1PA

>  <FRAG_ATOM_NUM>  (74) 
fragi: 13  fragj: 19

>  <atom.prop.CHAIN_ID>  (74) 
A A A A A A A A A A A A A Z Z Z Z Z Z Z Z Z Z Z Z Z Z Z Z Z Z Z

>  <atom.prop.IS_HEAVY_ATOM>  (74) 
1 0 0 0 1 1 0 1 0 1 0 1 0 1 0 0 0 1 1 1 1 0 0 1 0 0 1 0 0 1 0 0

>  <DIFUSE_FUNC_ATOM>  (74) 
n/a

>  <FINAL_SINGLE_POINT_ENERGY>  (74) 
0

>  <NONCOV_INTER_ENERGY_QM>  (74) 
0

>  <FF_Energy>  (74) 
-9.73

>  <QM_Energy>  (74) 
-15.05

>  <Index>  (74) 
481

$$$$
MIMM-pdb4ccj-C-HIP-414:N1PA-pdb4ccj-C-PRO-331
     RDKit          3D

 32 32  0  0  0  0  0  0  0  0999 V2000
   -0.6699    2.7422    0.0036 C   0  0  0  0  0  0  0  0  0  0  0  0
    0.0309    3.3092    0.4529 H   0  0  0  0  0  0  0  0  0  0  0  0
   -1.5154    2.7921    0.5494 H   0  0  0  0  0  0  0  0  0  0  0  0
   -0.8679    3.1466   -0.9890 H   0  0  0  0  0  0  0  0  0  0  0  0
   -0.1948    1.3207    0.0023 C   0  0  0  0  0  0  0  0  0  0  0  0
    1.0553    0.8006   -0.0000 C   0  0  0  0  0  0  0  0  0  0  0  0
    1.9104    1.3130    0.0009 H   0  0  0  0  0  0  0  0  0  0  0  0
    0.9275   -0.5672   -0.0021 N   0  0  0  0  0  4  0  0  0  0  0  0
    1.6855   -1.2225   -0.0047 H   0  0  0  0  0  0  0  0  0  0  0  0
   -0.3561   -0.8768   -0.0014 C   0  0  0  0  0  0  0  0  0  0  0  0
   -0.7326   -1.7983   -0.0001 H   0  0  0  0  0  0  0  0  0  0  0  0
   -1.0553    0.2442    0.0000 N   0  0  0  0  0  0  0  0  0  0  0  0
   -2.0534    0.3050   -0.0016 H   0  0  0  0  0  0  0  0  0  0  0  0
    3.0641    6.4764    0.8814 C   0  0  0  0  0  0  0  0  0  0  0  0
    3.2783    7.0733    1.6782 H   0  0  0  0  0  0  0  0  0  0  0  0
    3.7686    5.6448    0.8783 H   0  0  0  0  0  0  0  0  0  0  0  0
    3.1773    7.0877   -0.0139 H   0  0  0  0  0  0  0  0  0  0  0  0
    1.5969    6.0501    0.9925 C   0  0  0  0  0  0  0  0  0  0  0  0
    1.1371    5.1769    0.2578 O   0  0  0  0  0  0  0  0  0  0  0  0
    0.8432    6.6710    1.9125 N   0  0  0  0  0  0  0  0  0  0  0  0
   -0.5721    6.3318    2.0856 C   0  0  0  0  0  0  0  0  0  0  0  0
   -0.6937    5.3325    2.1671 H   0  0  0  0  0  0  0  0  0  0  0  0
   -1.1850    6.7260    1.2752 H   0  0  0  0  0  0  0  0  0  0  0  0
   -0.9092    6.9620    3.4313 C   0  0  0  0  0  0  0  0  0  0  0  0
   -1.8755    7.1962    3.4824 H   0  0  0  0  0  0  0  0  0  0  0  0
   -0.6636    6.3556    4.1808 H   0  0  0  0  0  0  0  0  0  0  0  0
   -0.0589    8.1888    3.4327 C   0  0  0  0  0  0  0  0  0  0  0  0
   -0.4357    8.8835    2.8308 H   0  0  0  0  0  0  0  0  0  0  0  0
    0.0460    8.5460    4.3538 H   0  0  0  0  0  0  0  0  0  0  0  0
    1.2661    7.6803    2.9007 C   0  0  0  0  0  0  0  0  0  0  0  0
    1.7818    8.4086    2.4615 H   0  0  0  0  0  0  0  0  0  0  0  0
    1.8091    7.2617    3.6229 H   0  0  0  0  0  0  0  0  0  0  0  0
  1  5  1  0
  5  6  2  0
  6  8  1  0
  8 10  2  0
 10 12  1  0
 12  5  1  0
  1  2  1  0
  1  3  1  0
  1  4  1  0
  6  7  1  0
  8  9  1  0
 10 11  1  0
 12 13  1  0
 14 18  1  0
 18 19  2  0
 18 20  1  0
 20 21  1  0
 21 24  1  0
 24 27  1  0
 27 30  1  0
 30 20  1  0
 14 15  1  0
 14 16  1  0
 14 17  1  0
 21 22  1  0
 21 23  1  0
 24 25  1  0
 24 26  1  0
 27 28  1  0
 27 29  1  0
 30 31  1  0
 30 32  1  0
M  CHG  1   8   1
M  END
>  <PDB_ID>  (75) 
pdb4ccj

>  <RESIDUE_NAME>  (75) 
HIP   PRO

>  <FRAG_NAME>  (75) 
MIMM   N1PA

>  <FRAG_ATOM_NUM>  (75) 
fragi: 13  fragj: 19

>  <atom.prop.CHAIN_ID>  (75) 
A A A A A A A A A A A A A Z Z Z Z Z Z Z Z Z Z Z Z Z Z Z Z Z Z Z

>  <atom.prop.IS_HEAVY_ATOM>  (75) 
1 0 0 0 1 1 0 1 0 1 0 1 0 1 0 0 0 1 1 1 1 0 0 1 0 0 1 0 0 1 0 0

>  <DIFUSE_FUNC_ATOM>  (75) 
n/a

>  <FINAL_SINGLE_POINT_ENERGY>  (75) 
0

>  <NONCOV_INTER_ENERGY_QM>  (75) 
0

>  <FF_Energy>  (75) 
-5.1

>  <QM_Energy>  (75) 
-11.18

>  <Index>  (75) 
494

$$$$
MIMM-pdb4dn5-A-HIP-537:N1PA-pdb4dn5-A-PRO-557
     RDKit          3D

 32 32  0  0  0  0  0  0  0  0999 V2000
   -0.7112    2.7435    0.0117 C   0  0  0  0  0  0  0  0  0  0  0  0
   -0.1907    3.2421    0.7126 H   0  0  0  0  0  0  0  0  0  0  0  0
   -1.6815    2.7381    0.2779 H   0  0  0  0  0  0  0  0  0  0  0  0
   -0.6043    3.2514   -0.9468 H   0  0  0  0  0  0  0  0  0  0  0  0
   -0.2247    1.3123    0.0041 C   0  0  0  0  0  0  0  0  0  0  0  0
    1.0649    0.7829    0.0000 C   0  0  0  0  0  0  0  0  0  0  0  0
    1.8983    1.3275    0.0002 H   0  0  0  0  0  0  0  0  0  0  0  0
    0.9497   -0.5618   -0.0024 N   0  0  0  0  0  4  0  0  0  0  0  0
    1.6963   -1.2288   -0.0051 H   0  0  0  0  0  0  0  0  0  0  0  0
   -0.3526   -0.8836   -0.0020 C   0  0  0  0  0  0  0  0  0  0  0  0
   -0.7250   -1.7946   -0.0017 H   0  0  0  0  0  0  0  0  0  0  0  0
   -1.0649    0.2612   -0.0000 N   0  0  0  0  0  0  0  0  0  0  0  0
   -2.0659    0.2930   -0.0023 H   0  0  0  0  0  0  0  0  0  0  0  0
   -5.5464   -0.7493   -0.7638 C   0  0  0  0  0  0  0  0  0  0  0  0
   -6.2649   -1.2663   -0.2964 H   0  0  0  0  0  0  0  0  0  0  0  0
   -6.0517   -0.0038   -1.3777 H   0  0  0  0  0  0  0  0  0  0  0  0
   -4.9227   -1.4148   -1.3608 H   0  0  0  0  0  0  0  0  0  0  0  0
   -4.7229   -0.0625    0.3328 C   0  0  0  0  0  0  0  0  0  0  0  0
   -3.9263    0.8326    0.0396 O   0  0  0  0  0  0  0  0  0  0  0  0
   -4.9325   -0.4686    1.6039 N   0  0  0  0  0  0  0  0  0  0  0  0
   -4.1334    0.0296    2.7278 C   0  0  0  0  0  0  0  0  0  0  0  0
   -4.0269    1.0335    2.6729 H   0  0  0  0  0  0  0  0  0  0  0  0
   -3.1588   -0.4550    2.7851 H   0  0  0  0  0  0  0  0  0  0  0  0
   -4.9799   -0.3367    3.9449 C   0  0  0  0  0  0  0  0  0  0  0  0
   -4.3967   -0.5277    4.7374 H   0  0  0  0  0  0  0  0  0  0  0  0
   -5.6108    0.4069    4.1750 H   0  0  0  0  0  0  0  0  0  0  0  0
   -5.7202   -1.5556    3.5185 C   0  0  0  0  0  0  0  0  0  0  0  0
   -5.1654   -2.3829    3.6816 H   0  0  0  0  0  0  0  0  0  0  0  0
   -6.5795   -1.6486    4.0397 H   0  0  0  0  0  0  0  0  0  0  0  0
   -6.0014   -1.3816    2.0542 C   0  0  0  0  0  0  0  0  0  0  0  0
   -5.9470   -2.2520    1.5624 H   0  0  0  0  0  0  0  0  0  0  0  0
   -6.9018   -0.9700    1.8979 H   0  0  0  0  0  0  0  0  0  0  0  0
  1  5  1  0
  5  6  2  0
  6  8  1  0
  8 10  2  0
 10 12  1  0
 12  5  1  0
  1  2  1  0
  1  3  1  0
  1  4  1  0
  6  7  1  0
  8  9  1  0
 10 11  1  0
 12 13  1  0
 14 18  1  0
 18 19  2  0
 18 20  1  0
 20 21  1  0
 21 24  1  0
 24 27  1  0
 27 30  1  0
 30 20  1  0
 14 15  1  0
 14 16  1  0
 14 17  1  0
 21 22  1  0
 21 23  1  0
 24 25  1  0
 24 26  1  0
 27 28  1  0
 27 29  1  0
 30 31  1  0
 30 32  1  0
M  CHG  1   8   1
M  END
>  <PDB_ID>  (76) 
pdb4dn5

>  <RESIDUE_NAME>  (76) 
HIP   PRO

>  <FRAG_NAME>  (76) 
MIMM   N1PA

>  <FRAG_ATOM_NUM>  (76) 
fragi: 13  fragj: 19

>  <atom.prop.CHAIN_ID>  (76) 
A A A A A A A A A A A A A Z Z Z Z Z Z Z Z Z Z Z Z Z Z Z Z Z Z Z

>  <atom.prop.IS_HEAVY_ATOM>  (76) 
1 0 0 0 1 1 0 1 0 1 0 1 0 1 0 0 0 1 1 1 1 0 0 1 0 0 1 0 0 1 0 0

>  <DIFUSE_FUNC_ATOM>  (76) 
n/a

>  <FINAL_SINGLE_POINT_ENERGY>  (76) 
0

>  <NONCOV_INTER_ENERGY_QM>  (76) 
0

>  <FF_Energy>  (76) 
-14.45

>  <QM_Energy>  (76) 
-22.72

>  <Index>  (76) 
515

$$$$
MIMM-pdb4dn5-B-HIP-537:N1PA-pdb4dn5-B-PRO-557
     RDKit          3D

 32 32  0  0  0  0  0  0  0  0999 V2000
   -0.7069    2.7422   -0.0022 C   0  0  0  0  0  0  0  0  0  0  0  0
   -0.1543    3.2582    0.6597 H   0  0  0  0  0  0  0  0  0  0  0  0
   -1.6634    2.7457    0.3063 H   0  0  0  0  0  0  0  0  0  0  0  0
   -0.6419    3.2222   -0.9787 H   0  0  0  0  0  0  0  0  0  0  0  0
   -0.2227    1.3122    0.0035 C   0  0  0  0  0  0  0  0  0  0  0  0
    1.0657    0.7821   -0.0000 C   0  0  0  0  0  0  0  0  0  0  0  0
    1.8997    1.3257   -0.0011 H   0  0  0  0  0  0  0  0  0  0  0  0
    0.9499   -0.5626   -0.0003 N   0  0  0  0  0  4  0  0  0  0  0  0
    1.6950   -1.2310   -0.0004 H   0  0  0  0  0  0  0  0  0  0  0  0
   -0.3545   -0.8832   -0.0020 C   0  0  0  0  0  0  0  0  0  0  0  0
   -0.7272   -1.7937   -0.0031 H   0  0  0  0  0  0  0  0  0  0  0  0
   -1.0657    0.2620   -0.0000 N   0  0  0  0  0  0  0  0  0  0  0  0
   -2.0663    0.2953   -0.0018 H   0  0  0  0  0  0  0  0  0  0  0  0
   -6.1794   -0.6831    0.0536 C   0  0  0  0  0  0  0  0  0  0  0  0
   -6.8834   -0.9926    0.6952 H   0  0  0  0  0  0  0  0  0  0  0  0
   -6.6562    0.0500   -0.5969 H   0  0  0  0  0  0  0  0  0  0  0  0
   -5.7572   -1.5146   -0.5109 H   0  0  0  0  0  0  0  0  0  0  0  0
   -5.0866   -0.0169    0.8950 C   0  0  0  0  0  0  0  0  0  0  0  0
   -4.1826    0.6158    0.3418 O   0  0  0  0  0  0  0  0  0  0  0  0
   -5.1750   -0.1472    2.2360 N   0  0  0  0  0  0  0  0  0  0  0  0
   -4.1405    0.3560    3.1467 C   0  0  0  0  0  0  0  0  0  0  0  0
   -3.9423    1.3299    2.9572 H   0  0  0  0  0  0  0  0  0  0  0  0
   -3.2266   -0.2363    3.1016 H   0  0  0  0  0  0  0  0  0  0  0  0
   -4.7867    0.2200    4.5334 C   0  0  0  0  0  0  0  0  0  0  0  0
   -4.4052   -0.5748    5.0217 H   0  0  0  0  0  0  0  0  0  0  0  0
   -4.6118    1.0437    5.0842 H   0  0  0  0  0  0  0  0  0  0  0  0
   -6.2445    0.0432    4.2805 C   0  0  0  0  0  0  0  0  0  0  0  0
   -6.6688   -0.4908    5.0196 H   0  0  0  0  0  0  0  0  0  0  0  0
   -6.7035    0.9359    4.2261 H   0  0  0  0  0  0  0  0  0  0  0  0
   -6.3289   -0.6848    2.9756 C   0  0  0  0  0  0  0  0  0  0  0  0
   -6.2374   -1.6714    3.0965 H   0  0  0  0  0  0  0  0  0  0  0  0
   -7.1793   -0.4813    2.4930 H   0  0  0  0  0  0  0  0  0  0  0  0
  1  5  1  0
  5  6  2  0
  6  8  1  0
  8 10  2  0
 10 12  1  0
 12  5  1  0
  1  2  1  0
  1  3  1  0
  1  4  1  0
  6  7  1  0
  8  9  1  0
 10 11  1  0
 12 13  1  0
 14 18  1  0
 18 19  2  0
 18 20  1  0
 20 21  1  0
 21 24  1  0
 24 27  1  0
 27 30  1  0
 30 20  1  0
 14 15  1  0
 14 16  1  0
 14 17  1  0
 21 22  1  0
 21 23  1  0
 24 25  1  0
 24 26  1  0
 27 28  1  0
 27 29  1  0
 30 31  1  0
 30 32  1  0
M  CHG  1   8   1
M  END
>  <PDB_ID>  (77) 
pdb4dn5

>  <RESIDUE_NAME>  (77) 
HIP   PRO

>  <FRAG_NAME>  (77) 
MIMM   N1PA

>  <FRAG_ATOM_NUM>  (77) 
fragi: 13  fragj: 19

>  <atom.prop.CHAIN_ID>  (77) 
A A A A A A A A A A A A A Z Z Z Z Z Z Z Z Z Z Z Z Z Z Z Z Z Z Z

>  <atom.prop.IS_HEAVY_ATOM>  (77) 
1 0 0 0 1 1 0 1 0 1 0 1 0 1 0 0 0 1 1 1 1 0 0 1 0 0 1 0 0 1 0 0

>  <DIFUSE_FUNC_ATOM>  (77) 
n/a

>  <FINAL_SINGLE_POINT_ENERGY>  (77) 
0

>  <NONCOV_INTER_ENERGY_QM>  (77) 
0

>  <FF_Energy>  (77) 
-14.09

>  <QM_Energy>  (77) 
-21.45

>  <Index>  (77) 
516

$$$$
MIMM-pdb4dws-D-HIP-465:N1PA-pdb4dws-D-PRO-471
     RDKit          3D

 32 32  0  0  0  0  0  0  0  0999 V2000
   -0.6625    2.7541    0.0803 C   0  0  0  0  0  0  0  0  0  0  0  0
   -1.2018    2.9320   -0.7488 H   0  0  0  0  0  0  0  0  0  0  0  0
    0.1456    3.3506    0.0720 H   0  0  0  0  0  0  0  0  0  0  0  0
   -1.2654    2.9700    0.9624 H   0  0  0  0  0  0  0  0  0  0  0  0
   -0.1822    1.3262    0.0209 C   0  0  0  0  0  0  0  0  0  0  0  0
    1.0654    0.8025   -0.0000 C   0  0  0  0  0  0  0  0  0  0  0  0
    1.9230    1.3019    0.0099 H   0  0  0  0  0  0  0  0  0  0  0  0
    0.9274   -0.5786   -0.0364 N   0  0  0  0  0  4  0  0  0  0  0  0
    1.6792   -1.2321   -0.0812 H   0  0  0  0  0  0  0  0  0  0  0  0
   -0.3644   -0.8814   -0.0039 C   0  0  0  0  0  0  0  0  0  0  0  0
   -0.7452   -1.7996    0.0155 H   0  0  0  0  0  0  0  0  0  0  0  0
   -1.0654    0.2495   -0.0000 N   0  0  0  0  0  0  0  0  0  0  0  0
   -2.0552    0.3199   -0.0107 H   0  0  0  0  0  0  0  0  0  0  0  0
   -5.6633    1.0792    1.9171 C   0  0  0  0  0  0  0  0  0  0  0  0
   -6.3773    0.4883    2.2932 H   0  0  0  0  0  0  0  0  0  0  0  0
   -4.9564    1.2491    2.7293 H   0  0  0  0  0  0  0  0  0  0  0  0
   -6.0346    2.0034    1.4742 H   0  0  0  0  0  0  0  0  0  0  0  0
   -4.9827    0.3061    0.8133 C   0  0  0  0  0  0  0  0  0  0  0  0
   -3.9720    0.7291    0.3326 O   0  0  0  0  0  0  0  0  0  0  0  0
   -5.5607   -0.8199    0.3622 N   0  0  0  0  0  0  0  0  0  0  0  0
   -4.9304   -1.4638   -0.7668 C   0  0  0  0  0  0  0  0  0  0  0  0
   -3.9781   -1.7557   -0.5456 H   0  0  0  0  0  0  0  0  0  0  0  0
   -4.9161   -0.8644   -1.6771 H   0  0  0  0  0  0  0  0  0  0  0  0
   -5.7704   -2.7608   -0.9776 C   0  0  0  0  0  0  0  0  0  0  0  0
   -6.3842   -2.6542   -1.7573 H   0  0  0  0  0  0  0  0  0  0  0  0
   -5.1709   -3.5445   -1.1264 H   0  0  0  0  0  0  0  0  0  0  0  0
   -6.5695   -2.9350    0.3124 C   0  0  0  0  0  0  0  0  0  0  0  0
   -7.4535   -3.3560    0.1132 H   0  0  0  0  0  0  0  0  0  0  0  0
   -6.0617   -3.5095    0.9532 H   0  0  0  0  0  0  0  0  0  0  0  0
   -6.7538   -1.5276    0.8735 C   0  0  0  0  0  0  0  0  0  0  0  0
   -7.5867   -1.1116    0.5264 H   0  0  0  0  0  0  0  0  0  0  0  0
   -6.7594   -1.5380    1.8680 H   0  0  0  0  0  0  0  0  0  0  0  0
  1  5  1  0
  5  6  2  0
  6  8  1  0
  8 10  2  0
 10 12  1  0
 12  5  1  0
  1  2  1  0
  1  3  1  0
  1  4  1  0
  6  7  1  0
  8  9  1  0
 10 11  1  0
 12 13  1  0
 14 18  1  0
 18 19  2  0
 18 20  1  0
 20 21  1  0
 21 24  1  0
 24 27  1  0
 27 30  1  0
 30 20  1  0
 14 15  1  0
 14 16  1  0
 14 17  1  0
 21 22  1  0
 21 23  1  0
 24 25  1  0
 24 26  1  0
 27 28  1  0
 27 29  1  0
 30 31  1  0
 30 32  1  0
M  CHG  1   8   1
M  END
>  <PDB_ID>  (78) 
pdb4dws

>  <RESIDUE_NAME>  (78) 
HIP   PRO

>  <FRAG_NAME>  (78) 
MIMM   N1PA

>  <FRAG_ATOM_NUM>  (78) 
fragi: 13  fragj: 19

>  <atom.prop.CHAIN_ID>  (78) 
A A A A A A A A A A A A A Z Z Z Z Z Z Z Z Z Z Z Z Z Z Z Z Z Z Z

>  <atom.prop.IS_HEAVY_ATOM>  (78) 
1 0 0 0 1 1 0 1 0 1 0 1 0 1 0 0 0 1 1 1 1 0 0 1 0 0 1 0 0 1 0 0

>  <DIFUSE_FUNC_ATOM>  (78) 
n/a

>  <FINAL_SINGLE_POINT_ENERGY>  (78) 
0

>  <NONCOV_INTER_ENERGY_QM>  (78) 
0

>  <FF_Energy>  (78) 
-15.59

>  <QM_Energy>  (78) 
-22.54

>  <Index>  (78) 
522

$$$$
MIMM-pdb3hdl-A-HIP-175:N1PA-pdb3hdl-A-PRO-217
     RDKit          3D

 32 32  0  0  0  0  0  0  0  0999 V2000
   -0.6760    2.7376    0.0156 C   0  0  0  0  0  0  0  0  0  0  0  0
   -0.1577    3.2369    0.7152 H   0  0  0  0  0  0  0  0  0  0  0  0
   -1.6476    2.7380    0.2714 H   0  0  0  0  0  0  0  0  0  0  0  0
   -0.5616    3.2457   -0.9420 H   0  0  0  0  0  0  0  0  0  0  0  0
   -0.1951    1.3204   -0.0055 C   0  0  0  0  0  0  0  0  0  0  0  0
    1.0560    0.8032    0.0000 C   0  0  0  0  0  0  0  0  0  0  0  0
    1.9099    1.3141    0.0045 H   0  0  0  0  0  0  0  0  0  0  0  0
    0.9276   -0.5675   -0.0015 N   0  0  0  0  0  4  0  0  0  0  0  0
    1.6848   -1.2218   -0.0051 H   0  0  0  0  0  0  0  0  0  0  0  0
   -0.3555   -0.8779    0.0030 C   0  0  0  0  0  0  0  0  0  0  0  0
   -0.7325   -1.7996    0.0070 H   0  0  0  0  0  0  0  0  0  0  0  0
   -1.0560    0.2435   -0.0000 N   0  0  0  0  0  0  0  0  0  0  0  0
   -2.0542    0.3035    0.0021 H   0  0  0  0  0  0  0  0  0  0  0  0
   -6.1797   -0.7672    0.9114 C   0  0  0  0  0  0  0  0  0  0  0  0
   -6.8537   -1.5039    0.9123 H   0  0  0  0  0  0  0  0  0  0  0  0
   -5.6518   -0.7734    1.8651 H   0  0  0  0  0  0  0  0  0  0  0  0
   -6.6720    0.1877    0.7272 H   0  0  0  0  0  0  0  0  0  0  0  0
   -5.1739   -1.0361   -0.2016 C   0  0  0  0  0  0  0  0  0  0  0  0
   -4.2695   -0.2323   -0.4220 O   0  0  0  0  0  0  0  0  0  0  0  0
   -5.3225   -2.1754   -0.8979 N   0  0  0  0  0  0  0  0  0  0  0  0
   -4.3262   -2.6625   -1.8624 C   0  0  0  0  0  0  0  0  0  0  0  0
   -3.3956   -2.6331   -1.4542 H   0  0  0  0  0  0  0  0  0  0  0  0
   -4.3447   -2.1268   -2.8115 H   0  0  0  0  0  0  0  0  0  0  0  0
   -4.7537   -4.1173   -2.0788 C   0  0  0  0  0  0  0  0  0  0  0  0
   -4.5242   -4.4174   -3.0033 H   0  0  0  0  0  0  0  0  0  0  0  0
   -4.3155   -4.7163   -1.4116 H   0  0  0  0  0  0  0  0  0  0  0  0
   -6.2300   -4.0751   -1.8774 C   0  0  0  0  0  0  0  0  0  0  0  0
   -6.6861   -3.7004   -2.6814 H   0  0  0  0  0  0  0  0  0  0  0  0
   -6.5858   -4.9858   -1.6801 H   0  0  0  0  0  0  0  0  0  0  0  0
   -6.3957   -3.1635   -0.6921 C   0  0  0  0  0  0  0  0  0  0  0  0
   -7.2873   -2.7181   -0.6950 H   0  0  0  0  0  0  0  0  0  0  0  0
   -6.2625   -3.6529    0.1678 H   0  0  0  0  0  0  0  0  0  0  0  0
  1  5  1  0
  5  6  2  0
  6  8  1  0
  8 10  2  0
 10 12  1  0
 12  5  1  0
  1  2  1  0
  1  3  1  0
  1  4  1  0
  6  7  1  0
  8  9  1  0
 10 11  1  0
 12 13  1  0
 14 18  1  0
 18 19  2  0
 18 20  1  0
 20 21  1  0
 21 24  1  0
 24 27  1  0
 27 30  1  0
 30 20  1  0
 14 15  1  0
 14 16  1  0
 14 17  1  0
 21 22  1  0
 21 23  1  0
 24 25  1  0
 24 26  1  0
 27 28  1  0
 27 29  1  0
 30 31  1  0
 30 32  1  0
M  CHG  1   8   1
M  END
>  <PDB_ID>  (79) 
pdb3hdl

>  <RESIDUE_NAME>  (79) 
HIP   PRO

>  <FRAG_NAME>  (79) 
MIMM   N1PA

>  <FRAG_ATOM_NUM>  (79) 
fragi: 13  fragj: 19

>  <atom.prop.CHAIN_ID>  (79) 
A A A A A A A A A A A A A Z Z Z Z Z Z Z Z Z Z Z Z Z Z Z Z Z Z Z

>  <atom.prop.IS_HEAVY_ATOM>  (79) 
1 0 0 0 1 1 0 1 0 1 0 1 0 1 0 0 0 1 1 1 1 0 0 1 0 0 1 0 0 1 0 0

>  <DIFUSE_FUNC_ATOM>  (79) 
n/a

>  <FINAL_SINGLE_POINT_ENERGY>  (79) 
0

>  <NONCOV_INTER_ENERGY_QM>  (79) 
0

>  <FF_Energy>  (79) 
-13.04

>  <QM_Energy>  (79) 
-19.09

>  <Index>  (79) 
528

$$$$
MIMM-pdb4em3-A-HIP-358:N1PA-pdb4em3-A-PRO-422
     RDKit          3D

 32 32  0  0  0  0  0  0  0  0999 V2000
   -0.6832    2.7451   -0.0085 C   0  0  0  0  0  0  0  0  0  0  0  0
   -1.1080    2.9313   -0.9028 H   0  0  0  0  0  0  0  0  0  0  0  0
    0.1186    3.3461    0.0931 H   0  0  0  0  0  0  0  0  0  0  0  0
   -1.3998    2.9749    0.7801 H   0  0  0  0  0  0  0  0  0  0  0  0
   -0.1990    1.3178   -0.0101 C   0  0  0  0  0  0  0  0  0  0  0  0
    1.0551    0.8039    0.0000 C   0  0  0  0  0  0  0  0  0  0  0  0
    1.9064    1.3175    0.0017 H   0  0  0  0  0  0  0  0  0  0  0  0
    0.9273   -0.5657    0.0075 N   0  0  0  0  0  4  0  0  0  0  0  0
    1.6900   -1.2174    0.0142 H   0  0  0  0  0  0  0  0  0  0  0  0
   -0.3493   -0.8799    0.0028 C   0  0  0  0  0  0  0  0  0  0  0  0
   -0.7283   -1.8001    0.0026 H   0  0  0  0  0  0  0  0  0  0  0  0
   -1.0551    0.2442    0.0000 N   0  0  0  0  0  0  0  0  0  0  0  0
   -2.0532    0.2981    0.0043 H   0  0  0  0  0  0  0  0  0  0  0  0
   -3.4875    3.2170   -4.6420 C   0  0  0  0  0  0  0  0  0  0  0  0
   -4.1819    3.4012   -3.8874 H   0  0  0  0  0  0  0  0  0  0  0  0
   -3.5136    4.0338   -5.3632 H   0  0  0  0  0  0  0  0  0  0  0  0
   -3.9118    2.3795   -5.1957 H   0  0  0  0  0  0  0  0  0  0  0  0
   -2.1435    2.8156   -4.0203 C   0  0  0  0  0  0  0  0  0  0  0  0
   -2.1460    2.4244   -2.8512 O   0  0  0  0  0  0  0  0  0  0  0  0
   -1.0272    2.9045   -4.7624 N   0  0  0  0  0  0  0  0  0  0  0  0
    0.2307    2.5347   -4.0972 C   0  0  0  0  0  0  0  0  0  0  0  0
    0.1459    1.6188   -3.6627 H   0  0  0  0  0  0  0  0  0  0  0  0
    0.5710    3.2709   -3.3690 H   0  0  0  0  0  0  0  0  0  0  0  0
    1.2446    2.4850   -5.2513 C   0  0  0  0  0  0  0  0  0  0  0  0
    1.8122    3.3138   -5.2595 H   0  0  0  0  0  0  0  0  0  0  0  0
    1.8433    1.6843   -5.1628 H   0  0  0  0  0  0  0  0  0  0  0  0
    0.4171    2.3955   -6.5066 C   0  0  0  0  0  0  0  0  0  0  0  0
    0.9158    2.7930   -7.2776 H   0  0  0  0  0  0  0  0  0  0  0  0
    0.2004    1.4397   -6.7095 H   0  0  0  0  0  0  0  0  0  0  0  0
   -0.8186    3.1796   -6.1947 C   0  0  0  0  0  0  0  0  0  0  0  0
   -0.6843    4.1576   -6.3467 H   0  0  0  0  0  0  0  0  0  0  0  0
   -1.6027    2.8630   -6.7288 H   0  0  0  0  0  0  0  0  0  0  0  0
  1  5  1  0
  5  6  2  0
  6  8  1  0
  8 10  2  0
 10 12  1  0
 12  5  1  0
  1  2  1  0
  1  3  1  0
  1  4  1  0
  6  7  1  0
  8  9  1  0
 10 11  1  0
 12 13  1  0
 14 18  1  0
 18 19  2  0
 18 20  1  0
 20 21  1  0
 21 24  1  0
 24 27  1  0
 27 30  1  0
 30 20  1  0
 14 15  1  0
 14 16  1  0
 14 17  1  0
 21 22  1  0
 21 23  1  0
 24 25  1  0
 24 26  1  0
 27 28  1  0
 27 29  1  0
 30 31  1  0
 30 32  1  0
M  CHG  1   8   1
M  END
>  <PDB_ID>  (80) 
pdb4em3

>  <RESIDUE_NAME>  (80) 
HIP   PRO

>  <FRAG_NAME>  (80) 
MIMM   N1PA

>  <FRAG_ATOM_NUM>  (80) 
fragi: 13  fragj: 19

>  <atom.prop.CHAIN_ID>  (80) 
A A A A A A A A A A A A A Z Z Z Z Z Z Z Z Z Z Z Z Z Z Z Z Z Z Z

>  <atom.prop.IS_HEAVY_ATOM>  (80) 
1 0 0 0 1 1 0 1 0 1 0 1 0 1 0 0 0 1 1 1 1 0 0 1 0 0 1 0 0 1 0 0

>  <DIFUSE_FUNC_ATOM>  (80) 
n/a

>  <FINAL_SINGLE_POINT_ENERGY>  (80) 
0

>  <NONCOV_INTER_ENERGY_QM>  (80) 
0

>  <FF_Energy>  (80) 
-8.19

>  <QM_Energy>  (80) 
-13.75

>  <Index>  (80) 
536

$$$$
MIMM-pdb4em3-A-HIP-358:N1PA-pdb4em3-A-PRO-363
     RDKit          3D

 32 32  0  0  0  0  0  0  0  0999 V2000
   -0.6832    2.7451   -0.0085 C   0  0  0  0  0  0  0  0  0  0  0  0
   -1.1080    2.9313   -0.9028 H   0  0  0  0  0  0  0  0  0  0  0  0
    0.1186    3.3461    0.0931 H   0  0  0  0  0  0  0  0  0  0  0  0
   -1.3998    2.9749    0.7801 H   0  0  0  0  0  0  0  0  0  0  0  0
   -0.1990    1.3178   -0.0101 C   0  0  0  0  0  0  0  0  0  0  0  0
    1.0551    0.8039    0.0000 C   0  0  0  0  0  0  0  0  0  0  0  0
    1.9064    1.3175    0.0017 H   0  0  0  0  0  0  0  0  0  0  0  0
    0.9273   -0.5657    0.0075 N   0  0  0  0  0  4  0  0  0  0  0  0
    1.6900   -1.2174    0.0142 H   0  0  0  0  0  0  0  0  0  0  0  0
   -0.3493   -0.8799    0.0028 C   0  0  0  0  0  0  0  0  0  0  0  0
   -0.7283   -1.8001    0.0026 H   0  0  0  0  0  0  0  0  0  0  0  0
   -1.0551    0.2442    0.0000 N   0  0  0  0  0  0  0  0  0  0  0  0
   -2.0532    0.2981    0.0043 H   0  0  0  0  0  0  0  0  0  0  0  0
   -2.6523   -2.7905   -2.9323 C   0  0  0  0  0  0  0  0  0  0  0  0
   -2.6992   -3.2834   -3.7979 H   0  0  0  0  0  0  0  0  0  0  0  0
   -3.6351   -2.8050   -2.4612 H   0  0  0  0  0  0  0  0  0  0  0  0
   -2.3338   -1.7701   -3.1459 H   0  0  0  0  0  0  0  0  0  0  0  0
   -1.6782   -3.5367   -2.0201 C   0  0  0  0  0  0  0  0  0  0  0  0
   -1.7282   -3.3901   -0.7980 O   0  0  0  0  0  0  0  0  0  0  0  0
   -0.8147   -4.3725   -2.6140 N   0  0  0  0  0  0  0  0  0  0  0  0
    0.0356   -5.2992   -1.8601 C   0  0  0  0  0  0  0  0  0  0  0  0
   -0.5285   -5.8518   -1.2159 H   0  0  0  0  0  0  0  0  0  0  0  0
    0.8527   -4.8095   -1.3305 H   0  0  0  0  0  0  0  0  0  0  0  0
    0.6134   -6.2118   -2.9530 C   0  0  0  0  0  0  0  0  0  0  0  0
    1.5563   -5.9375   -3.1756 H   0  0  0  0  0  0  0  0  0  0  0  0
    0.6263   -7.1676   -2.6405 H   0  0  0  0  0  0  0  0  0  0  0  0
   -0.2864   -6.0400   -4.1239 C   0  0  0  0  0  0  0  0  0  0  0  0
    0.2076   -6.2265   -4.9796 H   0  0  0  0  0  0  0  0  0  0  0  0
   -1.0690   -6.6682   -4.0627 H   0  0  0  0  0  0  0  0  0  0  0  0
   -0.7334   -4.6164   -4.0612 C   0  0  0  0  0  0  0  0  0  0  0  0
   -0.0705   -4.0006   -4.4834 H   0  0  0  0  0  0  0  0  0  0  0  0
   -1.6279   -4.4898   -4.4890 H   0  0  0  0  0  0  0  0  0  0  0  0
  1  5  1  0
  5  6  2  0
  6  8  1  0
  8 10  2  0
 10 12  1  0
 12  5  1  0
  1  2  1  0
  1  3  1  0
  1  4  1  0
  6  7  1  0
  8  9  1  0
 10 11  1  0
 12 13  1  0
 14 18  1  0
 18 19  2  0
 18 20  1  0
 20 21  1  0
 21 24  1  0
 24 27  1  0
 27 30  1  0
 30 20  1  0
 14 15  1  0
 14 16  1  0
 14 17  1  0
 21 22  1  0
 21 23  1  0
 24 25  1  0
 24 26  1  0
 27 28  1  0
 27 29  1  0
 30 31  1  0
 30 32  1  0
M  CHG  1   8   1
M  END
>  <PDB_ID>  (81) 
pdb4em3

>  <RESIDUE_NAME>  (81) 
HIP   PRO

>  <FRAG_NAME>  (81) 
MIMM   N1PA

>  <FRAG_ATOM_NUM>  (81) 
fragi: 13  fragj: 19

>  <atom.prop.CHAIN_ID>  (81) 
A A A A A A A A A A A A A Z Z Z Z Z Z Z Z Z Z Z Z Z Z Z Z Z Z Z

>  <atom.prop.IS_HEAVY_ATOM>  (81) 
1 0 0 0 1 1 0 1 0 1 0 1 0 1 0 0 0 1 1 1 1 0 0 1 0 0 1 0 0 1 0 0

>  <DIFUSE_FUNC_ATOM>  (81) 
n/a

>  <FINAL_SINGLE_POINT_ENERGY>  (81) 
0

>  <NONCOV_INTER_ENERGY_QM>  (81) 
0

>  <FF_Energy>  (81) 
-2.42

>  <QM_Energy>  (81) 
-16.43

>  <Index>  (81) 
537

$$$$
MIMM-pdb3hy2-Y-HIP-100:N1PA-pdb3hy2-Y-PRO-59
     RDKit          3D

 32 32  0  0  0  0  0  0  0  0999 V2000
   -0.6767    2.7328    0.0299 C   0  0  0  0  0  0  0  0  0  0  0  0
   -1.5061    2.8007   -0.5323 H   0  0  0  0  0  0  0  0  0  0  0  0
    0.0328    3.3203   -0.3688 H   0  0  0  0  0  0  0  0  0  0  0  0
   -0.9004    3.0808    1.0383 H   0  0  0  0  0  0  0  0  0  0  0  0
   -0.1954    1.3197   -0.0090 C   0  0  0  0  0  0  0  0  0  0  0  0
    1.0538    0.8034   -0.0000 C   0  0  0  0  0  0  0  0  0  0  0  0
    1.9081    1.3150    0.0122 H   0  0  0  0  0  0  0  0  0  0  0  0
    0.9252   -0.5645   -0.0101 N   0  0  0  0  0  4  0  0  0  0  0  0
    1.6865   -1.2194   -0.0269 H   0  0  0  0  0  0  0  0  0  0  0  0
   -0.3553   -0.8798    0.0049 C   0  0  0  0  0  0  0  0  0  0  0  0
   -0.7298   -1.8005    0.0191 H   0  0  0  0  0  0  0  0  0  0  0  0
   -1.0538    0.2419    0.0000 N   0  0  0  0  0  0  0  0  0  0  0  0
   -2.0533    0.3022    0.0018 H   0  0  0  0  0  0  0  0  0  0  0  0
    4.0005   -2.4599    0.0266 C   0  0  0  0  0  0  0  0  0  0  0  0
    4.5448   -3.2634    0.2818 H   0  0  0  0  0  0  0  0  0  0  0  0
    3.1244   -2.4408    0.6747 H   0  0  0  0  0  0  0  0  0  0  0  0
    3.6827   -2.4702   -1.0160 H   0  0  0  0  0  0  0  0  0  0  0  0
    4.8902   -1.2254    0.2753 C   0  0  0  0  0  0  0  0  0  0  0  0
    4.5204   -0.1039   -0.1251 O   0  0  0  0  0  0  0  0  0  0  0  0
    6.0726   -1.4225    0.9097 N   0  0  0  0  0  0  0  0  0  0  0  0
    6.9421   -0.2865    1.2516 C   0  0  0  0  0  0  0  0  0  0  0  0
    6.5137    0.2812    1.9775 H   0  0  0  0  0  0  0  0  0  0  0  0
    7.2067    0.3301    0.3927 H   0  0  0  0  0  0  0  0  0  0  0  0
    8.1968   -0.9528    1.8434 C   0  0  0  0  0  0  0  0  0  0  0  0
    8.9248   -0.9910    1.1392 H   0  0  0  0  0  0  0  0  0  0  0  0
    8.5487   -0.3936    2.6114 H   0  0  0  0  0  0  0  0  0  0  0  0
    7.7805   -2.2709    2.2706 C   0  0  0  0  0  0  0  0  0  0  0  0
    8.5425   -2.9430    2.2178 H   0  0  0  0  0  0  0  0  0  0  0  0
    7.4571   -2.2695    3.2350 H   0  0  0  0  0  0  0  0  0  0  0  0
    6.6530   -2.7057    1.3553 C   0  0  0  0  0  0  0  0  0  0  0  0
    6.9980   -3.2242    0.5769 H   0  0  0  0  0  0  0  0  0  0  0  0
    5.9739   -3.2462    1.8490 H   0  0  0  0  0  0  0  0  0  0  0  0
  1  5  1  0
  5  6  2  0
  6  8  1  0
  8 10  2  0
 10 12  1  0
 12  5  1  0
  1  2  1  0
  1  3  1  0
  1  4  1  0
  6  7  1  0
  8  9  1  0
 10 11  1  0
 12 13  1  0
 14 18  1  0
 18 19  2  0
 18 20  1  0
 20 21  1  0
 21 24  1  0
 24 27  1  0
 27 30  1  0
 30 20  1  0
 14 15  1  0
 14 16  1  0
 14 17  1  0
 21 22  1  0
 21 23  1  0
 24 25  1  0
 24 26  1  0
 27 28  1  0
 27 29  1  0
 30 31  1  0
 30 32  1  0
M  CHG  1   8   1
M  END
>  <PDB_ID>  (82) 
pdb3hy2

>  <RESIDUE_NAME>  (82) 
HIP   PRO

>  <FRAG_NAME>  (82) 
MIMM   N1PA

>  <FRAG_ATOM_NUM>  (82) 
fragi: 13  fragj: 19

>  <atom.prop.CHAIN_ID>  (82) 
A A A A A A A A A A A A A Z Z Z Z Z Z Z Z Z Z Z Z Z Z Z Z Z Z Z

>  <atom.prop.IS_HEAVY_ATOM>  (82) 
1 0 0 0 1 1 0 1 0 1 0 1 0 1 0 0 0 1 1 1 1 0 0 1 0 0 1 0 0 1 0 0

>  <DIFUSE_FUNC_ATOM>  (82) 
n/a

>  <FINAL_SINGLE_POINT_ENERGY>  (82) 
0

>  <NONCOV_INTER_ENERGY_QM>  (82) 
0

>  <FF_Energy>  (82) 
-6.82

>  <QM_Energy>  (82) 
-12.89

>  <Index>  (82) 
543

$$$$
MIMM-pdb4f3w-A-HIP-108:N1PA-pdb4f3w-A-PRO-112
     RDKit          3D

 32 32  0  0  0  0  0  0  0  0999 V2000
   -0.6869    2.7407    0.0022 C   0  0  0  0  0  0  0  0  0  0  0  0
    0.0699    3.3074    0.3602 H   0  0  0  0  0  0  0  0  0  0  0  0
   -1.4521    2.7993    0.6604 H   0  0  0  0  0  0  0  0  0  0  0  0
   -1.0076    3.1278   -0.9649 H   0  0  0  0  0  0  0  0  0  0  0  0
   -0.2154    1.3130   -0.0219 C   0  0  0  0  0  0  0  0  0  0  0  0
    1.0712    0.7788   -0.0000 C   0  0  0  0  0  0  0  0  0  0  0  0
    1.9066    1.3190    0.0116 H   0  0  0  0  0  0  0  0  0  0  0  0
    0.9509   -0.5665    0.0034 N   0  0  0  0  0  4  0  0  0  0  0  0
    1.6891   -1.2392    0.0009 H   0  0  0  0  0  0  0  0  0  0  0  0
   -0.3623   -0.8822    0.0089 C   0  0  0  0  0  0  0  0  0  0  0  0
   -0.7355   -1.7916    0.0185 H   0  0  0  0  0  0  0  0  0  0  0  0
   -1.0712    0.2663    0.0000 N   0  0  0  0  0  0  0  0  0  0  0  0
   -2.0677    0.3073    0.0081 H   0  0  0  0  0  0  0  0  0  0  0  0
   -5.4370    3.4549    2.1004 C   0  0  0  0  0  0  0  0  0  0  0  0
   -6.0131    4.2263    1.8095 H   0  0  0  0  0  0  0  0  0  0  0  0
   -5.7509    3.1484    3.0057 H   0  0  0  0  0  0  0  0  0  0  0  0
   -5.5189    2.6388    1.3826 H   0  0  0  0  0  0  0  0  0  0  0  0
   -4.0017    3.9095    2.1957 C   0  0  0  0  0  0  0  0  0  0  0  0
   -3.0970    3.0966    2.0543 O   0  0  0  0  0  0  0  0  0  0  0  0
   -3.7821    5.1998    2.4431 N   0  0  0  0  0  0  0  0  0  0  0  0
   -2.4058    5.7029    2.6258 C   0  0  0  0  0  0  0  0  0  0  0  0
   -1.8530    5.5293    1.7806 H   0  0  0  0  0  0  0  0  0  0  0  0
   -1.8802    5.3217    3.5013 H   0  0  0  0  0  0  0  0  0  0  0  0
   -2.6216    7.2070    2.7686 C   0  0  0  0  0  0  0  0  0  0  0  0
   -1.9040    7.6122    3.3416 H   0  0  0  0  0  0  0  0  0  0  0  0
   -2.6077    7.6510    1.8695 H   0  0  0  0  0  0  0  0  0  0  0  0
   -3.9454    7.3166    3.4054 C   0  0  0  0  0  0  0  0  0  0  0  0
   -3.8824    7.1711    4.3987 H   0  0  0  0  0  0  0  0  0  0  0  0
   -4.3521    8.2213    3.2396 H   0  0  0  0  0  0  0  0  0  0  0  0
   -4.7732    6.2384    2.7639 C   0  0  0  0  0  0  0  0  0  0  0  0
   -5.4640    5.8827    3.3941 H   0  0  0  0  0  0  0  0  0  0  0  0
   -5.2213    6.5665    1.9306 H   0  0  0  0  0  0  0  0  0  0  0  0
  1  5  1  0
  5  6  2  0
  6  8  1  0
  8 10  2  0
 10 12  1  0
 12  5  1  0
  1  2  1  0
  1  3  1  0
  1  4  1  0
  6  7  1  0
  8  9  1  0
 10 11  1  0
 12 13  1  0
 14 18  1  0
 18 19  2  0
 18 20  1  0
 20 21  1  0
 21 24  1  0
 24 27  1  0
 27 30  1  0
 30 20  1  0
 14 15  1  0
 14 16  1  0
 14 17  1  0
 21 22  1  0
 21 23  1  0
 24 25  1  0
 24 26  1  0
 27 28  1  0
 27 29  1  0
 30 31  1  0
 30 32  1  0
M  CHG  1   8   1
M  END
>  <PDB_ID>  (83) 
pdb4f3w

>  <RESIDUE_NAME>  (83) 
HIP   PRO

>  <FRAG_NAME>  (83) 
MIMM   N1PA

>  <FRAG_ATOM_NUM>  (83) 
fragi: 13  fragj: 19

>  <atom.prop.CHAIN_ID>  (83) 
A A A A A A A A A A A A A Z Z Z Z Z Z Z Z Z Z Z Z Z Z Z Z Z Z Z

>  <atom.prop.IS_HEAVY_ATOM>  (83) 
1 0 0 0 1 1 0 1 0 1 0 1 0 1 0 0 0 1 1 1 1 0 0 1 0 0 1 0 0 1 0 0

>  <DIFUSE_FUNC_ATOM>  (83) 
n/a

>  <FINAL_SINGLE_POINT_ENERGY>  (83) 
0

>  <NONCOV_INTER_ENERGY_QM>  (83) 
0

>  <FF_Energy>  (83) 
-6.08

>  <QM_Energy>  (83) 
-13.96

>  <Index>  (83) 
548

$$$$
MIMM-pdb4f3w-C-HIP-108:N1PA-pdb4f3w-C-PRO-112
     RDKit          3D

 32 32  0  0  0  0  0  0  0  0999 V2000
   -0.6782    2.7296   -0.0559 C   0  0  0  0  0  0  0  0  0  0  0  0
    0.0652    3.3142    0.2917 H   0  0  0  0  0  0  0  0  0  0  0  0
   -1.4643    2.8172    0.5693 H   0  0  0  0  0  0  0  0  0  0  0  0
   -0.9712    3.0757   -1.0471 H   0  0  0  0  0  0  0  0  0  0  0  0
   -0.2123    1.3120   -0.0255 C   0  0  0  0  0  0  0  0  0  0  0  0
    1.0700    0.7790    0.0000 C   0  0  0  0  0  0  0  0  0  0  0  0
    1.9078    1.3178    0.0002 H   0  0  0  0  0  0  0  0  0  0  0  0
    0.9481   -0.5645    0.0243 N   0  0  0  0  0  4  0  0  0  0  0  0
    1.6877   -1.2376    0.0504 H   0  0  0  0  0  0  0  0  0  0  0  0
   -0.3634   -0.8825    0.0067 C   0  0  0  0  0  0  0  0  0  0  0  0
   -0.7357   -1.7918    0.0012 H   0  0  0  0  0  0  0  0  0  0  0  0
   -1.0700    0.2653   -0.0000 N   0  0  0  0  0  0  0  0  0  0  0  0
   -2.0671    0.3100    0.0113 H   0  0  0  0  0  0  0  0  0  0  0  0
   -5.6136    3.3201    1.7353 C   0  0  0  0  0  0  0  0  0  0  0  0
   -6.1972    4.0530    1.3724 H   0  0  0  0  0  0  0  0  0  0  0  0
   -5.9928    3.0138    2.6144 H   0  0  0  0  0  0  0  0  0  0  0  0
   -5.5981    2.4854    1.0345 H   0  0  0  0  0  0  0  0  0  0  0  0
   -4.2104    3.8492    1.9468 C   0  0  0  0  0  0  0  0  0  0  0  0
   -3.2566    3.0872    1.9388 O   0  0  0  0  0  0  0  0  0  0  0  0
   -4.0722    5.1515    2.1565 N   0  0  0  0  0  0  0  0  0  0  0  0
   -2.7145    5.7137    2.3079 C   0  0  0  0  0  0  0  0  0  0  0  0
   -2.1477    5.4895    1.4987 H   0  0  0  0  0  0  0  0  0  0  0  0
   -2.2187    5.3894    3.2228 H   0  0  0  0  0  0  0  0  0  0  0  0
   -2.9593    7.2224    2.3266 C   0  0  0  0  0  0  0  0  0  0  0  0
   -2.3370    7.6695    2.9837 H   0  0  0  0  0  0  0  0  0  0  0  0
   -2.7862    7.6168    1.4150 H   0  0  0  0  0  0  0  0  0  0  0  0
   -4.3657    7.3805    2.7247 C   0  0  0  0  0  0  0  0  0  0  0  0
   -4.4437    7.4965    3.7365 H   0  0  0  0  0  0  0  0  0  0  0  0
   -4.7639    8.2246    2.3114 H   0  0  0  0  0  0  0  0  0  0  0  0
   -5.1184    6.1724    2.2769 C   0  0  0  0  0  0  0  0  0  0  0  0
   -5.8059    5.8931    2.9499 H   0  0  0  0  0  0  0  0  0  0  0  0
   -5.5676    6.3219    1.3923 H   0  0  0  0  0  0  0  0  0  0  0  0
  1  5  1  0
  5  6  2  0
  6  8  1  0
  8 10  2  0
 10 12  1  0
 12  5  1  0
  1  2  1  0
  1  3  1  0
  1  4  1  0
  6  7  1  0
  8  9  1  0
 10 11  1  0
 12 13  1  0
 14 18  1  0
 18 19  2  0
 18 20  1  0
 20 21  1  0
 21 24  1  0
 24 27  1  0
 27 30  1  0
 30 20  1  0
 14 15  1  0
 14 16  1  0
 14 17  1  0
 21 22  1  0
 21 23  1  0
 24 25  1  0
 24 26  1  0
 27 28  1  0
 27 29  1  0
 30 31  1  0
 30 32  1  0
M  CHG  1   8   1
M  END
>  <PDB_ID>  (84) 
pdb4f3w

>  <RESIDUE_NAME>  (84) 
HIP   PRO

>  <FRAG_NAME>  (84) 
MIMM   N1PA

>  <FRAG_ATOM_NUM>  (84) 
fragi: 13  fragj: 19

>  <atom.prop.CHAIN_ID>  (84) 
A A A A A A A A A A A A A Z Z Z Z Z Z Z Z Z Z Z Z Z Z Z Z Z Z Z

>  <atom.prop.IS_HEAVY_ATOM>  (84) 
1 0 0 0 1 1 0 1 0 1 0 1 0 1 0 0 0 1 1 1 1 0 0 1 0 0 1 0 0 1 0 0

>  <DIFUSE_FUNC_ATOM>  (84) 
n/a

>  <FINAL_SINGLE_POINT_ENERGY>  (84) 
0

>  <NONCOV_INTER_ENERGY_QM>  (84) 
0

>  <FF_Energy>  (84) 
-7.45

>  <QM_Energy>  (84) 
-13.76

>  <Index>  (84) 
549

$$$$
MIMM-pdb3i6s-A-HIP-746:N1PA-pdb3i6s-A-PRO-608
     RDKit          3D

 32 32  0  0  0  0  0  0  0  0999 V2000
   -0.6705    2.7366   -0.0017 C   0  0  0  0  0  0  0  0  0  0  0  0
   -1.6275    2.7469   -0.3141 H   0  0  0  0  0  0  0  0  0  0  0  0
   -0.1157    3.2546   -0.6639 H   0  0  0  0  0  0  0  0  0  0  0  0
   -0.6083    3.2239    0.9713 H   0  0  0  0  0  0  0  0  0  0  0  0
   -0.1938    1.3202    0.0014 C   0  0  0  0  0  0  0  0  0  0  0  0
    1.0552    0.8011   -0.0000 C   0  0  0  0  0  0  0  0  0  0  0  0
    1.9105    1.3127   -0.0001 H   0  0  0  0  0  0  0  0  0  0  0  0
    0.9262   -0.5665   -0.0009 N   0  0  0  0  0  4  0  0  0  0  0  0
    1.6842   -1.2222   -0.0029 H   0  0  0  0  0  0  0  0  0  0  0  0
   -0.3566   -0.8773   -0.0011 C   0  0  0  0  0  0  0  0  0  0  0  0
   -0.7324   -1.7989   -0.0005 H   0  0  0  0  0  0  0  0  0  0  0  0
   -1.0552    0.2440    0.0000 N   0  0  0  0  0  0  0  0  0  0  0  0
   -2.0539    0.3051   -0.0007 H   0  0  0  0  0  0  0  0  0  0  0  0
    5.4505   -1.9959    0.1724 C   0  0  0  0  0  0  0  0  0  0  0  0
    5.4306   -2.5103   -0.6917 H   0  0  0  0  0  0  0  0  0  0  0  0
    6.4908   -1.9443    0.4937 H   0  0  0  0  0  0  0  0  0  0  0  0
    4.8545   -2.4738    0.9499 H   0  0  0  0  0  0  0  0  0  0  0  0
    4.9085   -0.6010   -0.1251 C   0  0  0  0  0  0  0  0  0  0  0  0
    4.0956   -0.0724    0.6353 O   0  0  0  0  0  0  0  0  0  0  0  0
    5.3513   -0.0101   -1.2456 N   0  0  0  0  0  0  0  0  0  0  0  0
    5.1190    1.3909   -1.5941 C   0  0  0  0  0  0  0  0  0  0  0  0
    5.2690    1.9882   -0.7798 H   0  0  0  0  0  0  0  0  0  0  0  0
    4.1380    1.5785   -2.0307 H   0  0  0  0  0  0  0  0  0  0  0  0
    6.1969    1.6605   -2.6402 C   0  0  0  0  0  0  0  0  0  0  0  0
    5.8994    2.3663   -3.2831 H   0  0  0  0  0  0  0  0  0  0  0  0
    7.0512    1.9441   -2.2065 H   0  0  0  0  0  0  0  0  0  0  0  0
    6.3582    0.3441   -3.3288 C   0  0  0  0  0  0  0  0  0  0  0  0
    5.6980    0.2592   -4.0884 H   0  0  0  0  0  0  0  0  0  0  0  0
    7.2880    0.2591   -3.7144 H   0  0  0  0  0  0  0  0  0  0  0  0
    6.1135   -0.7195   -2.2893 C   0  0  0  0  0  0  0  0  0  0  0  0
    5.5771   -1.4773   -2.6615 H   0  0  0  0  0  0  0  0  0  0  0  0
    6.9739   -1.0726   -1.9178 H   0  0  0  0  0  0  0  0  0  0  0  0
  1  5  1  0
  5  6  2  0
  6  8  1  0
  8 10  2  0
 10 12  1  0
 12  5  1  0
  1  2  1  0
  1  3  1  0
  1  4  1  0
  6  7  1  0
  8  9  1  0
 10 11  1  0
 12 13  1  0
 14 18  1  0
 18 19  2  0
 18 20  1  0
 20 21  1  0
 21 24  1  0
 24 27  1  0
 27 30  1  0
 30 20  1  0
 14 15  1  0
 14 16  1  0
 14 17  1  0
 21 22  1  0
 21 23  1  0
 24 25  1  0
 24 26  1  0
 27 28  1  0
 27 29  1  0
 30 31  1  0
 30 32  1  0
M  CHG  1   8   1
M  END
>  <PDB_ID>  (85) 
pdb3i6s

>  <RESIDUE_NAME>  (85) 
HIP   PRO

>  <FRAG_NAME>  (85) 
MIMM   N1PA

>  <FRAG_ATOM_NUM>  (85) 
fragi: 13  fragj: 19

>  <atom.prop.CHAIN_ID>  (85) 
A A A A A A A A A A A A A Z Z Z Z Z Z Z Z Z Z Z Z Z Z Z Z Z Z Z

>  <atom.prop.IS_HEAVY_ATOM>  (85) 
1 0 0 0 1 1 0 1 0 1 0 1 0 1 0 0 0 1 1 1 1 0 0 1 0 0 1 0 0 1 0 0

>  <DIFUSE_FUNC_ATOM>  (85) 
n/a

>  <FINAL_SINGLE_POINT_ENERGY>  (85) 
0

>  <NONCOV_INTER_ENERGY_QM>  (85) 
0

>  <FF_Energy>  (85) 
-10.3

>  <QM_Energy>  (85) 
-15.7

>  <Index>  (85) 
550

$$$$
MIMM-pdb3i6s-B-HIP-746:N1PA-pdb3i6s-B-PRO-608
     RDKit          3D

 32 32  0  0  0  0  0  0  0  0999 V2000
   -0.6749    2.7369   -0.0091 C   0  0  0  0  0  0  0  0  0  0  0  0
   -1.6437    2.7390   -0.2895 H   0  0  0  0  0  0  0  0  0  0  0  0
   -0.1457    3.2423   -0.7021 H   0  0  0  0  0  0  0  0  0  0  0  0
   -0.5809    3.2464    0.9499 H   0  0  0  0  0  0  0  0  0  0  0  0
   -0.1950    1.3202    0.0032 C   0  0  0  0  0  0  0  0  0  0  0  0
    1.0558    0.8013   -0.0000 C   0  0  0  0  0  0  0  0  0  0  0  0
    1.9095    1.3134    0.0014 H   0  0  0  0  0  0  0  0  0  0  0  0
    0.9278   -0.5672   -0.0039 N   0  0  0  0  0  4  0  0  0  0  0  0
    1.6852   -1.2222   -0.0093 H   0  0  0  0  0  0  0  0  0  0  0  0
   -0.3559   -0.8771   -0.0012 C   0  0  0  0  0  0  0  0  0  0  0  0
   -0.7328   -1.7989    0.0007 H   0  0  0  0  0  0  0  0  0  0  0  0
   -1.0558    0.2446    0.0000 N   0  0  0  0  0  0  0  0  0  0  0  0
   -2.0538    0.3055   -0.0015 H   0  0  0  0  0  0  0  0  0  0  0  0
    5.4254   -2.0324    0.1481 C   0  0  0  0  0  0  0  0  0  0  0  0
    5.3902   -2.5613   -0.7086 H   0  0  0  0  0  0  0  0  0  0  0  0
    6.4686   -1.9923    0.4617 H   0  0  0  0  0  0  0  0  0  0  0  0
    4.8269   -2.4985    0.9309 H   0  0  0  0  0  0  0  0  0  0  0  0
    4.8932   -0.6382   -0.1679 C   0  0  0  0  0  0  0  0  0  0  0  0
    4.1044   -0.0822    0.5970 O   0  0  0  0  0  0  0  0  0  0  0  0
    5.3173   -0.0764   -1.3128 N   0  0  0  0  0  0  0  0  0  0  0  0
    5.0892    1.3195   -1.6841 C   0  0  0  0  0  0  0  0  0  0  0  0
    5.2611    1.9320   -0.8845 H   0  0  0  0  0  0  0  0  0  0  0  0
    4.1024    1.5118   -2.1053 H   0  0  0  0  0  0  0  0  0  0  0  0
    6.1536    1.5618   -2.7494 C   0  0  0  0  0  0  0  0  0  0  0  0
    5.8506    2.2556   -3.4041 H   0  0  0  0  0  0  0  0  0  0  0  0
    7.0146    1.8543   -2.3322 H   0  0  0  0  0  0  0  0  0  0  0  0
    6.3035    0.2327   -3.4116 C   0  0  0  0  0  0  0  0  0  0  0  0
    5.6368    0.1344   -4.1647 H   0  0  0  0  0  0  0  0  0  0  0  0
    7.2295    0.1352   -3.8042 H   0  0  0  0  0  0  0  0  0  0  0  0
    6.0633   -0.8108   -2.3493 C   0  0  0  0  0  0  0  0  0  0  0  0
    5.5190   -1.5716   -2.7023 H   0  0  0  0  0  0  0  0  0  0  0  0
    6.9249   -1.1614   -1.9810 H   0  0  0  0  0  0  0  0  0  0  0  0
  1  5  1  0
  5  6  2  0
  6  8  1  0
  8 10  2  0
 10 12  1  0
 12  5  1  0
  1  2  1  0
  1  3  1  0
  1  4  1  0
  6  7  1  0
  8  9  1  0
 10 11  1  0
 12 13  1  0
 14 18  1  0
 18 19  2  0
 18 20  1  0
 20 21  1  0
 21 24  1  0
 24 27  1  0
 27 30  1  0
 30 20  1  0
 14 15  1  0
 14 16  1  0
 14 17  1  0
 21 22  1  0
 21 23  1  0
 24 25  1  0
 24 26  1  0
 27 28  1  0
 27 29  1  0
 30 31  1  0
 30 32  1  0
M  CHG  1   8   1
M  END
>  <PDB_ID>  (86) 
pdb3i6s

>  <RESIDUE_NAME>  (86) 
HIP   PRO

>  <FRAG_NAME>  (86) 
MIMM   N1PA

>  <FRAG_ATOM_NUM>  (86) 
fragi: 13  fragj: 19

>  <atom.prop.CHAIN_ID>  (86) 
A A A A A A A A A A A A A Z Z Z Z Z Z Z Z Z Z Z Z Z Z Z Z Z Z Z

>  <atom.prop.IS_HEAVY_ATOM>  (86) 
1 0 0 0 1 1 0 1 0 1 0 1 0 1 0 0 0 1 1 1 1 0 0 1 0 0 1 0 0 1 0 0

>  <DIFUSE_FUNC_ATOM>  (86) 
n/a

>  <FINAL_SINGLE_POINT_ENERGY>  (86) 
0

>  <NONCOV_INTER_ENERGY_QM>  (86) 
0

>  <FF_Energy>  (86) 
-10.24

>  <QM_Energy>  (86) 
-15.62

>  <Index>  (86) 
551

$$$$
MIMM-pdb3ima-A-HIP-81:N1PA-pdb3ima-A-PRO-102
     RDKit          3D

 32 32  0  0  0  0  0  0  0  0999 V2000
   -0.6675    2.7164    0.1902 C   0  0  0  0  0  0  0  0  0  0  0  0
   -1.5821    2.7995   -0.2164 H   0  0  0  0  0  0  0  0  0  0  0  0
   -0.0416    3.3328   -0.2954 H   0  0  0  0  0  0  0  0  0  0  0  0
   -0.7197    3.0249    1.2343 H   0  0  0  0  0  0  0  0  0  0  0  0
   -0.1921    1.3189    0.0152 C   0  0  0  0  0  0  0  0  0  0  0  0
    1.0570    0.8017    0.0000 C   0  0  0  0  0  0  0  0  0  0  0  0
    1.9117    1.3121   -0.0060 H   0  0  0  0  0  0  0  0  0  0  0  0
    0.9268   -0.5673   -0.0035 N   0  0  0  0  0  4  0  0  0  0  0  0
    1.6828   -1.2232   -0.0048 H   0  0  0  0  0  0  0  0  0  0  0  0
   -0.3583   -0.8750   -0.0068 C   0  0  0  0  0  0  0  0  0  0  0  0
   -0.7347   -1.7982   -0.0117 H   0  0  0  0  0  0  0  0  0  0  0  0
   -1.0570    0.2449    0.0000 N   0  0  0  0  0  0  0  0  0  0  0  0
   -2.0541    0.3088   -0.0054 H   0  0  0  0  0  0  0  0  0  0  0  0
    4.5694   -2.3897   -2.1279 C   0  0  0  0  0  0  0  0  0  0  0  0
    4.9541   -3.2690   -2.3501 H   0  0  0  0  0  0  0  0  0  0  0  0
    5.2225   -1.6622   -2.2545 H   0  0  0  0  0  0  0  0  0  0  0  0
    3.6763   -2.2050   -2.7248 H   0  0  0  0  0  0  0  0  0  0  0  0
    4.0794   -2.3924   -0.7024 C   0  0  0  0  0  0  0  0  0  0  0  0
    2.8691   -2.3527   -0.4767 O   0  0  0  0  0  0  0  0  0  0  0  0
    4.9912   -2.4321    0.2851 N   0  0  0  0  0  0  0  0  0  0  0  0
    4.6694   -2.4454    1.7151 C   0  0  0  0  0  0  0  0  0  0  0  0
    4.3237   -3.3502    1.9972 H   0  0  0  0  0  0  0  0  0  0  0  0
    3.9515   -1.6666    1.9721 H   0  0  0  0  0  0  0  0  0  0  0  0
    6.0383   -2.1991    2.3626 C   0  0  0  0  0  0  0  0  0  0  0  0
    6.2195   -1.2235    2.4428 H   0  0  0  0  0  0  0  0  0  0  0  0
    6.0899   -2.6337    3.2564 H   0  0  0  0  0  0  0  0  0  0  0  0
    6.9845   -2.8437    1.3955 C   0  0  0  0  0  0  0  0  0  0  0  0
    7.9098   -2.5276    1.5511 H   0  0  0  0  0  0  0  0  0  0  0  0
    6.9283   -3.8292    1.4601 H   0  0  0  0  0  0  0  0  0  0  0  0
    6.4506   -2.3504    0.0877 C   0  0  0  0  0  0  0  0  0  0  0  0
    6.7255   -1.4086   -0.0924 H   0  0  0  0  0  0  0  0  0  0  0  0
    6.7331   -2.9341   -0.6718 H   0  0  0  0  0  0  0  0  0  0  0  0
  1  5  1  0
  5  6  2  0
  6  8  1  0
  8 10  2  0
 10 12  1  0
 12  5  1  0
  1  2  1  0
  1  3  1  0
  1  4  1  0
  6  7  1  0
  8  9  1  0
 10 11  1  0
 12 13  1  0
 14 18  1  0
 18 19  2  0
 18 20  1  0
 20 21  1  0
 21 24  1  0
 24 27  1  0
 27 30  1  0
 30 20  1  0
 14 15  1  0
 14 16  1  0
 14 17  1  0
 21 22  1  0
 21 23  1  0
 24 25  1  0
 24 26  1  0
 27 28  1  0
 27 29  1  0
 30 31  1  0
 30 32  1  0
M  CHG  1   8   1
M  END
>  <PDB_ID>  (87) 
pdb3ima

>  <RESIDUE_NAME>  (87) 
HIP   PRO

>  <FRAG_NAME>  (87) 
MIMM   N1PA

>  <FRAG_ATOM_NUM>  (87) 
fragi: 13  fragj: 19

>  <atom.prop.CHAIN_ID>  (87) 
A A A A A A A A A A A A A Z Z Z Z Z Z Z Z Z Z Z Z Z Z Z Z Z Z Z

>  <atom.prop.IS_HEAVY_ATOM>  (87) 
1 0 0 0 1 1 0 1 0 1 0 1 0 1 0 0 0 1 1 1 1 0 0 1 0 0 1 0 0 1 0 0

>  <DIFUSE_FUNC_ATOM>  (87) 
n/a

>  <FINAL_SINGLE_POINT_ENERGY>  (87) 
0

>  <NONCOV_INTER_ENERGY_QM>  (87) 
0

>  <FF_Energy>  (87) 
-16.88

>  <QM_Energy>  (87) 
-25.43

>  <Index>  (87) 
556

$$$$
MIMM-pdb3jub-A-HIP-48:N1PA-pdb3jub-A-PRO-149
     RDKit          3D

 32 32  0  0  0  0  0  0  0  0999 V2000
   -0.6421    2.7318   -0.0070 C   0  0  0  0  0  0  0  0  0  0  0  0
   -1.6397    2.7567   -0.1319 H   0  0  0  0  0  0  0  0  0  0  0  0
   -0.2106    3.1961   -0.7877 H   0  0  0  0  0  0  0  0  0  0  0  0
   -0.3983    3.2907    0.8965 H   0  0  0  0  0  0  0  0  0  0  0  0
   -0.1932    1.3155    0.0206 C   0  0  0  0  0  0  0  0  0  0  0  0
    1.0630    0.7966   -0.0000 C   0  0  0  0  0  0  0  0  0  0  0  0
    1.9130    1.3109   -0.0059 H   0  0  0  0  0  0  0  0  0  0  0  0
    0.9284   -0.5657   -0.0085 N   0  0  0  0  0  4  0  0  0  0  0  0
    1.6827   -1.2278   -0.0158 H   0  0  0  0  0  0  0  0  0  0  0  0
   -0.3600   -0.8768   -0.0081 C   0  0  0  0  0  0  0  0  0  0  0  0
   -0.7352   -1.7963   -0.0121 H   0  0  0  0  0  0  0  0  0  0  0  0
   -1.0630    0.2499    0.0000 N   0  0  0  0  0  0  0  0  0  0  0  0
   -2.0562    0.3102   -0.0072 H   0  0  0  0  0  0  0  0  0  0  0  0
    3.3187    5.4285   -0.5554 C   0  0  0  0  0  0  0  0  0  0  0  0
    4.1702    5.7461   -0.9540 H   0  0  0  0  0  0  0  0  0  0  0  0
    2.5456    6.1311   -0.8666 H   0  0  0  0  0  0  0  0  0  0  0  0
    3.3548    5.3628    0.5321 H   0  0  0  0  0  0  0  0  0  0  0  0
    2.9925    4.0826   -1.1820 C   0  0  0  0  0  0  0  0  0  0  0  0
    2.4920    3.2176   -0.5013 O   0  0  0  0  0  0  0  0  0  0  0  0
    3.2580    3.9304   -2.4905 N   0  0  0  0  0  0  0  0  0  0  0  0
    2.9598    2.6198   -3.1114 C   0  0  0  0  0  0  0  0  0  0  0  0
    1.9790    2.3669   -2.9430 H   0  0  0  0  0  0  0  0  0  0  0  0
    3.6099    1.7932   -2.8246 H   0  0  0  0  0  0  0  0  0  0  0  0
    3.0589    2.9150   -4.6120 C   0  0  0  0  0  0  0  0  0  0  0  0
    3.4067    2.1158   -5.1083 H   0  0  0  0  0  0  0  0  0  0  0  0
    2.1632    3.1664   -4.9843 H   0  0  0  0  0  0  0  0  0  0  0  0
    4.0214    4.0660   -4.7153 C   0  0  0  0  0  0  0  0  0  0  0  0
    4.9472    3.7212   -4.9586 H   0  0  0  0  0  0  0  0  0  0  0  0
    3.7348    4.6893   -5.4668 H   0  0  0  0  0  0  0  0  0  0  0  0
    4.0436    4.7816   -3.4042 C   0  0  0  0  0  0  0  0  0  0  0  0
    4.9829    4.8908   -3.0551 H   0  0  0  0  0  0  0  0  0  0  0  0
    3.6261    5.6972   -3.4720 H   0  0  0  0  0  0  0  0  0  0  0  0
  1  5  1  0
  5  6  2  0
  6  8  1  0
  8 10  2  0
 10 12  1  0
 12  5  1  0
  1  2  1  0
  1  3  1  0
  1  4  1  0
  6  7  1  0
  8  9  1  0
 10 11  1  0
 12 13  1  0
 14 18  1  0
 18 19  2  0
 18 20  1  0
 20 21  1  0
 21 24  1  0
 24 27  1  0
 27 30  1  0
 30 20  1  0
 14 15  1  0
 14 16  1  0
 14 17  1  0
 21 22  1  0
 21 23  1  0
 24 25  1  0
 24 26  1  0
 27 28  1  0
 27 29  1  0
 30 31  1  0
 30 32  1  0
M  CHG  1   8   1
M  END
>  <PDB_ID>  (88) 
pdb3jub

>  <RESIDUE_NAME>  (88) 
HIP   PRO

>  <FRAG_NAME>  (88) 
MIMM   N1PA

>  <FRAG_ATOM_NUM>  (88) 
fragi: 13  fragj: 19

>  <atom.prop.CHAIN_ID>  (88) 
A A A A A A A A A A A A A Z Z Z Z Z Z Z Z Z Z Z Z Z Z Z Z Z Z Z

>  <atom.prop.IS_HEAVY_ATOM>  (88) 
1 0 0 0 1 1 0 1 0 1 0 1 0 1 0 0 0 1 1 1 1 0 0 1 0 0 1 0 0 1 0 0

>  <DIFUSE_FUNC_ATOM>  (88) 
n/a

>  <FINAL_SINGLE_POINT_ENERGY>  (88) 
0

>  <NONCOV_INTER_ENERGY_QM>  (88) 
0

>  <FF_Energy>  (88) 
-6.11

>  <QM_Energy>  (88) 
-15.83

>  <Index>  (88) 
564

$$$$
MIMM-pdb3k6k-C-HIP-281:N1PA-pdb3k6k-C-PRO-186
     RDKit          3D

 32 32  0  0  0  0  0  0  0  0999 V2000
   -0.6774    2.7641   -0.0355 C   0  0  0  0  0  0  0  0  0  0  0  0
   -1.1645    2.8992   -0.9137 H   0  0  0  0  0  0  0  0  0  0  0  0
    0.1395    3.3634   -0.0481 H   0  0  0  0  0  0  0  0  0  0  0  0
   -1.3295    3.0829    0.7776 H   0  0  0  0  0  0  0  0  0  0  0  0
   -0.1991    1.3272    0.0137 C   0  0  0  0  0  0  0  0  0  0  0  0
    1.0568    0.8041    0.0000 C   0  0  0  0  0  0  0  0  0  0  0  0
    1.9090    1.3162   -0.0079 H   0  0  0  0  0  0  0  0  0  0  0  0
    0.9288   -0.5688    0.0002 N   0  0  0  0  0  4  0  0  0  0  0  0
    1.6875   -1.2214    0.0031 H   0  0  0  0  0  0  0  0  0  0  0  0
   -0.3548   -0.8798   -0.0064 C   0  0  0  0  0  0  0  0  0  0  0  0
   -0.7298   -1.8023   -0.0138 H   0  0  0  0  0  0  0  0  0  0  0  0
   -1.0568    0.2398   -0.0000 N   0  0  0  0  0  0  0  0  0  0  0  0
   -2.0552    0.2995   -0.0048 H   0  0  0  0  0  0  0  0  0  0  0  0
   -4.0520   -2.1465    2.1349 C   0  0  0  0  0  0  0  0  0  0  0  0
   -4.9367   -2.0543    1.6283 H   0  0  0  0  0  0  0  0  0  0  0  0
   -4.2652   -2.1814    3.2032 H   0  0  0  0  0  0  0  0  0  0  0  0
   -3.5087   -1.2246    1.9271 H   0  0  0  0  0  0  0  0  0  0  0  0
   -3.3376   -3.4015    1.5527 C   0  0  0  0  0  0  0  0  0  0  0  0
   -2.2770   -3.2903    0.8974 O   0  0  0  0  0  0  0  0  0  0  0  0
   -3.9421   -4.5949    1.7344 N   0  0  0  0  0  0  0  0  0  0  0  0
   -3.3417   -5.8523    1.2340 C   0  0  0  0  0  0  0  0  0  0  0  0
   -2.4920   -6.0585    1.7498 H   0  0  0  0  0  0  0  0  0  0  0  0
   -3.1540   -5.8375    0.1604 H   0  0  0  0  0  0  0  0  0  0  0  0
   -4.4021   -6.9190    1.5433 C   0  0  0  0  0  0  0  0  0  0  0  0
   -4.5034   -7.5617    0.7981 H   0  0  0  0  0  0  0  0  0  0  0  0
   -4.2165   -7.3848    2.3947 H   0  0  0  0  0  0  0  0  0  0  0  0
   -5.7199   -6.0852    1.6874 C   0  0  0  0  0  0  0  0  0  0  0  0
   -6.0931   -5.9243    0.7827 H   0  0  0  0  0  0  0  0  0  0  0  0
   -6.3584   -6.5976    2.2462 H   0  0  0  0  0  0  0  0  0  0  0  0
   -5.2705   -4.8215    2.3508 C   0  0  0  0  0  0  0  0  0  0  0  0
   -5.8790   -4.0589    2.1486 H   0  0  0  0  0  0  0  0  0  0  0  0
   -5.1788   -4.9324    3.3376 H   0  0  0  0  0  0  0  0  0  0  0  0
  1  5  1  0
  5  6  2  0
  6  8  1  0
  8 10  2  0
 10 12  1  0
 12  5  1  0
  1  2  1  0
  1  3  1  0
  1  4  1  0
  6  7  1  0
  8  9  1  0
 10 11  1  0
 12 13  1  0
 14 18  1  0
 18 19  2  0
 18 20  1  0
 20 21  1  0
 21 24  1  0
 24 27  1  0
 27 30  1  0
 30 20  1  0
 14 15  1  0
 14 16  1  0
 14 17  1  0
 21 22  1  0
 21 23  1  0
 24 25  1  0
 24 26  1  0
 27 28  1  0
 27 29  1  0
 30 31  1  0
 30 32  1  0
M  CHG  1   8   1
M  END
>  <PDB_ID>  (89) 
pdb3k6k

>  <RESIDUE_NAME>  (89) 
HIP   PRO

>  <FRAG_NAME>  (89) 
MIMM   N1PA

>  <FRAG_ATOM_NUM>  (89) 
fragi: 13  fragj: 19

>  <atom.prop.CHAIN_ID>  (89) 
A A A A A A A A A A A A A Z Z Z Z Z Z Z Z Z Z Z Z Z Z Z Z Z Z Z

>  <atom.prop.IS_HEAVY_ATOM>  (89) 
1 0 0 0 1 1 0 1 0 1 0 1 0 1 0 0 0 1 1 1 1 0 0 1 0 0 1 0 0 1 0 0

>  <DIFUSE_FUNC_ATOM>  (89) 
n/a

>  <FINAL_SINGLE_POINT_ENERGY>  (89) 
0

>  <NONCOV_INTER_ENERGY_QM>  (89) 
0

>  <FF_Energy>  (89) 
-9.29

>  <QM_Energy>  (89) 
-17.38

>  <Index>  (89) 
571

$$$$
MIMM-pdb3k6k-D-HIP-281:N1PA-pdb3k6k-D-PRO-186
     RDKit          3D

 32 32  0  0  0  0  0  0  0  0999 V2000
   -0.6805    2.7503    0.0218 C   0  0  0  0  0  0  0  0  0  0  0  0
   -1.1288    2.9318   -0.8593 H   0  0  0  0  0  0  0  0  0  0  0  0
    0.1208    3.3512    0.1050 H   0  0  0  0  0  0  0  0  0  0  0  0
   -1.3776    2.9746    0.8292 H   0  0  0  0  0  0  0  0  0  0  0  0
   -0.1962    1.3224    0.0157 C   0  0  0  0  0  0  0  0  0  0  0  0
    1.0581    0.7975    0.0000 C   0  0  0  0  0  0  0  0  0  0  0  0
    1.9115    1.3114    0.0003 H   0  0  0  0  0  0  0  0  0  0  0  0
    0.9299   -0.5693   -0.0142 N   0  0  0  0  0  4  0  0  0  0  0  0
    1.6841   -1.2255   -0.0300 H   0  0  0  0  0  0  0  0  0  0  0  0
   -0.3555   -0.8740   -0.0053 C   0  0  0  0  0  0  0  0  0  0  0  0
   -0.7337   -1.7970   -0.0015 H   0  0  0  0  0  0  0  0  0  0  0  0
   -1.0581    0.2463   -0.0000 N   0  0  0  0  0  0  0  0  0  0  0  0
   -2.0550    0.3066   -0.0069 H   0  0  0  0  0  0  0  0  0  0  0  0
   -3.7490   -2.6105    2.7524 C   0  0  0  0  0  0  0  0  0  0  0  0
   -4.6521   -2.5390    2.3380 H   0  0  0  0  0  0  0  0  0  0  0  0
   -3.8957   -2.8083    3.8142 H   0  0  0  0  0  0  0  0  0  0  0  0
   -3.1502   -1.7243    2.5425 H   0  0  0  0  0  0  0  0  0  0  0  0
   -3.0149   -3.7876    2.1175 C   0  0  0  0  0  0  0  0  0  0  0  0
   -2.0089   -3.5824    1.3432 O   0  0  0  0  0  0  0  0  0  0  0  0
   -3.4987   -5.0127    2.4099 N   0  0  0  0  0  0  0  0  0  0  0  0
   -2.7856   -6.2429    2.0423 C   0  0  0  0  0  0  0  0  0  0  0  0
   -1.8907   -6.2833    2.5113 H   0  0  0  0  0  0  0  0  0  0  0  0
   -2.6684   -6.3297    0.9622 H   0  0  0  0  0  0  0  0  0  0  0  0
   -3.7114   -7.3639    2.5661 C   0  0  0  0  0  0  0  0  0  0  0  0
   -3.7361   -8.1299    1.9182 H   0  0  0  0  0  0  0  0  0  0  0  0
   -3.3880   -7.7000    3.4543 H   0  0  0  0  0  0  0  0  0  0  0  0
   -5.0756   -6.7315    2.6976 C   0  0  0  0  0  0  0  0  0  0  0  0
   -5.5863   -6.8342    1.8369 H   0  0  0  0  0  0  0  0  0  0  0  0
   -5.5942   -7.1844    3.4314 H   0  0  0  0  0  0  0  0  0  0  0  0
   -4.8325   -5.2888    3.0154 C   0  0  0  0  0  0  0  0  0  0  0  0
   -5.5240   -4.6941    2.6034 H   0  0  0  0  0  0  0  0  0  0  0  0
   -4.7999   -5.1233    4.0029 H   0  0  0  0  0  0  0  0  0  0  0  0
  1  5  1  0
  5  6  2  0
  6  8  1  0
  8 10  2  0
 10 12  1  0
 12  5  1  0
  1  2  1  0
  1  3  1  0
  1  4  1  0
  6  7  1  0
  8  9  1  0
 10 11  1  0
 12 13  1  0
 14 18  1  0
 18 19  2  0
 18 20  1  0
 20 21  1  0
 21 24  1  0
 24 27  1  0
 27 30  1  0
 30 20  1  0
 14 15  1  0
 14 16  1  0
 14 17  1  0
 21 22  1  0
 21 23  1  0
 24 25  1  0
 24 26  1  0
 27 28  1  0
 27 29  1  0
 30 31  1  0
 30 32  1  0
M  CHG  1   8   1
M  END
>  <PDB_ID>  (90) 
pdb3k6k

>  <RESIDUE_NAME>  (90) 
HIP   PRO

>  <FRAG_NAME>  (90) 
MIMM   N1PA

>  <FRAG_ATOM_NUM>  (90) 
fragi: 13  fragj: 19

>  <atom.prop.CHAIN_ID>  (90) 
A A A A A A A A A A A A A Z Z Z Z Z Z Z Z Z Z Z Z Z Z Z Z Z Z Z

>  <atom.prop.IS_HEAVY_ATOM>  (90) 
1 0 0 0 1 1 0 1 0 1 0 1 0 1 0 0 0 1 1 1 1 0 0 1 0 0 1 0 0 1 0 0

>  <DIFUSE_FUNC_ATOM>  (90) 
n/a

>  <FINAL_SINGLE_POINT_ENERGY>  (90) 
0

>  <NONCOV_INTER_ENERGY_QM>  (90) 
0

>  <FF_Energy>  (90) 
-9.39

>  <QM_Energy>  (90) 
-15.85

>  <Index>  (90) 
572

$$$$
MIMM-pdb4h4j-A-HIP-178:N1PA-pdb4h4j-A-PRO-135
     RDKit          3D

 32 32  0  0  0  0  0  0  0  0999 V2000
   -0.6937    2.7032   -0.0855 C   0  0  0  0  0  0  0  0  0  0  0  0
   -0.2491    3.2258    0.6462 H   0  0  0  0  0  0  0  0  0  0  0  0
   -1.6842    2.6980    0.0738 H   0  0  0  0  0  0  0  0  0  0  0  0
   -0.4933    3.1917   -1.0391 H   0  0  0  0  0  0  0  0  0  0  0  0
   -0.1969    1.3168   -0.0542 C   0  0  0  0  0  0  0  0  0  0  0  0
    1.0469    0.8047   -0.0000 C   0  0  0  0  0  0  0  0  0  0  0  0
    1.9039    1.3166    0.0128 H   0  0  0  0  0  0  0  0  0  0  0  0
    0.9282   -0.5700    0.0361 N   0  0  0  0  0  4  0  0  0  0  0  0
    1.6903   -1.2151    0.0697 H   0  0  0  0  0  0  0  0  0  0  0  0
   -0.3495   -0.8799    0.0177 C   0  0  0  0  0  0  0  0  0  0  0  0
   -0.7313   -1.7985    0.0180 H   0  0  0  0  0  0  0  0  0  0  0  0
   -1.0469    0.2470    0.0000 N   0  0  0  0  0  0  0  0  0  0  0  0
   -2.0491    0.3011    0.0230 H   0  0  0  0  0  0  0  0  0  0  0  0
   -5.5569    1.4235    1.3902 C   0  0  0  0  0  0  0  0  0  0  0  0
   -6.5125    1.1061    1.4101 H   0  0  0  0  0  0  0  0  0  0  0  0
   -5.1905    1.4934    2.4144 H   0  0  0  0  0  0  0  0  0  0  0  0
   -5.4772    2.3653    0.8474 H   0  0  0  0  0  0  0  0  0  0  0  0
   -4.7479    0.4028    0.6144 C   0  0  0  0  0  0  0  0  0  0  0  0
   -3.5450    0.4906    0.5349 O   0  0  0  0  0  0  0  0  0  0  0  0
   -5.4101   -0.5814    0.0062 N   0  0  0  0  0  0  0  0  0  0  0  0
   -4.6482   -1.5514   -0.7844 C   0  0  0  0  0  0  0  0  0  0  0  0
   -3.8139   -1.8427   -0.2712 H   0  0  0  0  0  0  0  0  0  0  0  0
   -4.3865   -1.2007   -1.7828 H   0  0  0  0  0  0  0  0  0  0  0  0
   -5.5868   -2.7366   -0.8551 C   0  0  0  0  0  0  0  0  0  0  0  0
   -5.4068   -3.2783   -1.6873 H   0  0  0  0  0  0  0  0  0  0  0  0
   -5.4560   -3.3370   -0.0557 H   0  0  0  0  0  0  0  0  0  0  0  0
   -6.9060   -2.1395   -0.8742 C   0  0  0  0  0  0  0  0  0  0  0  0
   -7.1569   -1.7977   -1.7855 H   0  0  0  0  0  0  0  0  0  0  0  0
   -7.6178   -2.7774   -0.5633 H   0  0  0  0  0  0  0  0  0  0  0  0
   -6.8218   -0.9562    0.1065 C   0  0  0  0  0  0  0  0  0  0  0  0
   -7.4139   -0.2182   -0.1881 H   0  0  0  0  0  0  0  0  0  0  0  0
   -7.0552   -1.2488    1.0256 H   0  0  0  0  0  0  0  0  0  0  0  0
  1  5  1  0
  5  6  2  0
  6  8  1  0
  8 10  2  0
 10 12  1  0
 12  5  1  0
  1  2  1  0
  1  3  1  0
  1  4  1  0
  6  7  1  0
  8  9  1  0
 10 11  1  0
 12 13  1  0
 14 18  1  0
 18 19  2  0
 18 20  1  0
 20 21  1  0
 21 24  1  0
 24 27  1  0
 27 30  1  0
 30 20  1  0
 14 15  1  0
 14 16  1  0
 14 17  1  0
 21 22  1  0
 21 23  1  0
 24 25  1  0
 24 26  1  0
 27 28  1  0
 27 29  1  0
 30 31  1  0
 30 32  1  0
M  CHG  1   8   1
M  END
>  <PDB_ID>  (91) 
pdb4h4j

>  <RESIDUE_NAME>  (91) 
HIP   PRO

>  <FRAG_NAME>  (91) 
MIMM   N1PA

>  <FRAG_ATOM_NUM>  (91) 
fragi: 13  fragj: 19

>  <atom.prop.CHAIN_ID>  (91) 
A A A A A A A A A A A A A Z Z Z Z Z Z Z Z Z Z Z Z Z Z Z Z Z Z Z

>  <atom.prop.IS_HEAVY_ATOM>  (91) 
1 0 0 0 1 1 0 1 0 1 0 1 0 1 0 0 0 1 1 1 1 0 0 1 0 0 1 0 0 1 0 0

>  <DIFUSE_FUNC_ATOM>  (91) 
n/a

>  <FINAL_SINGLE_POINT_ENERGY>  (91) 
0

>  <NONCOV_INTER_ENERGY_QM>  (91) 
0

>  <FF_Energy>  (91) 
-17.73

>  <QM_Energy>  (91) 
-26.27

>  <Index>  (91) 
573

$$$$
MIMM-pdb4h7l-A-HIP-63:N1PA-pdb4h7l-A-PRO-116
     RDKit          3D

 32 32  0  0  0  0  0  0  0  0999 V2000
   -0.6737    2.7378   -0.0051 C   0  0  0  0  0  0  0  0  0  0  0  0
   -1.5920    2.7623   -0.4135 H   0  0  0  0  0  0  0  0  0  0  0  0
   -0.0531    3.2816   -0.5806 H   0  0  0  0  0  0  0  0  0  0  0  0
   -0.7162    3.1845    0.9882 H   0  0  0  0  0  0  0  0  0  0  0  0
   -0.1947    1.3206   -0.0061 C   0  0  0  0  0  0  0  0  0  0  0  0
    1.0549    0.8013    0.0000 C   0  0  0  0  0  0  0  0  0  0  0  0
    1.9101    1.3133    0.0023 H   0  0  0  0  0  0  0  0  0  0  0  0
    0.9271   -0.5668    0.0034 N   0  0  0  0  0  4  0  0  0  0  0  0
    1.6846   -1.2222    0.0050 H   0  0  0  0  0  0  0  0  0  0  0  0
   -0.3567   -0.8768    0.0017 C   0  0  0  0  0  0  0  0  0  0  0  0
   -0.7323   -1.7989    0.0027 H   0  0  0  0  0  0  0  0  0  0  0  0
   -1.0549    0.2439    0.0000 N   0  0  0  0  0  0  0  0  0  0  0  0
   -2.0542    0.3047    0.0022 H   0  0  0  0  0  0  0  0  0  0  0  0
    4.8657    1.2499    1.8378 C   0  0  0  0  0  0  0  0  0  0  0  0
    5.7518    1.6373    2.1339 H   0  0  0  0  0  0  0  0  0  0  0  0
    4.0483    1.9234    2.0953 H   0  0  0  0  0  0  0  0  0  0  0  0
    4.6342    0.3478    2.4041 H   0  0  0  0  0  0  0  0  0  0  0  0
    4.8917    0.9227    0.3471 C   0  0  0  0  0  0  0  0  0  0  0  0
    4.1550    1.5385   -0.4219 O   0  0  0  0  0  0  0  0  0  0  0  0
    5.7304   -0.0423   -0.0615 N   0  0  0  0  0  0  0  0  0  0  0  0
    5.7724   -0.4071   -1.4804 C   0  0  0  0  0  0  0  0  0  0  0  0
    6.2092    0.3285   -2.0248 H   0  0  0  0  0  0  0  0  0  0  0  0
    4.7882   -0.6464   -1.8834 H   0  0  0  0  0  0  0  0  0  0  0  0
    6.6830   -1.6370   -1.4971 C   0  0  0  0  0  0  0  0  0  0  0  0
    6.1450   -2.4759   -1.3942 H   0  0  0  0  0  0  0  0  0  0  0  0
    7.2013   -1.6817   -2.3527 H   0  0  0  0  0  0  0  0  0  0  0  0
    7.5897   -1.4357   -0.3301 C   0  0  0  0  0  0  0  0  0  0  0  0
    7.9372   -2.3192    0.0044 H   0  0  0  0  0  0  0  0  0  0  0  0
    8.3752   -0.8622   -0.5872 H   0  0  0  0  0  0  0  0  0  0  0  0
    6.7549   -0.7565    0.7234 C   0  0  0  0  0  0  0  0  0  0  0  0
    6.3271   -1.4206    1.3362 H   0  0  0  0  0  0  0  0  0  0  0  0
    7.2983   -0.1111    1.2614 H   0  0  0  0  0  0  0  0  0  0  0  0
  1  5  1  0
  5  6  2  0
  6  8  1  0
  8 10  2  0
 10 12  1  0
 12  5  1  0
  1  2  1  0
  1  3  1  0
  1  4  1  0
  6  7  1  0
  8  9  1  0
 10 11  1  0
 12 13  1  0
 14 18  1  0
 18 19  2  0
 18 20  1  0
 20 21  1  0
 21 24  1  0
 24 27  1  0
 27 30  1  0
 30 20  1  0
 14 15  1  0
 14 16  1  0
 14 17  1  0
 21 22  1  0
 21 23  1  0
 24 25  1  0
 24 26  1  0
 27 28  1  0
 27 29  1  0
 30 31  1  0
 30 32  1  0
M  CHG  1   8   1
M  END
>  <PDB_ID>  (92) 
pdb4h7l

>  <RESIDUE_NAME>  (92) 
HIP   PRO

>  <FRAG_NAME>  (92) 
MIMM   N1PA

>  <FRAG_ATOM_NUM>  (92) 
fragi: 13  fragj: 19

>  <atom.prop.CHAIN_ID>  (92) 
A A A A A A A A A A A A A Z Z Z Z Z Z Z Z Z Z Z Z Z Z Z Z Z Z Z

>  <atom.prop.IS_HEAVY_ATOM>  (92) 
1 0 0 0 1 1 0 1 0 1 0 1 0 1 0 0 0 1 1 1 1 0 0 1 0 0 1 0 0 1 0 0

>  <DIFUSE_FUNC_ATOM>  (92) 
n/a

>  <FINAL_SINGLE_POINT_ENERGY>  (92) 
0

>  <NONCOV_INTER_ENERGY_QM>  (92) 
0

>  <FF_Energy>  (92) 
-6.74

>  <QM_Energy>  (92) 
-12.2

>  <Index>  (92) 
575

$$$$
MIMM-pdb3ks7-A-HIP-385:N1PA-pdb3ks7-A-PRO-382
     RDKit          3D

 32 32  0  0  0  0  0  0  0  0999 V2000
   -0.6647    2.7239    0.0109 C   0  0  0  0  0  0  0  0  0  0  0  0
    0.0027    3.2830    0.5201 H   0  0  0  0  0  0  0  0  0  0  0  0
   -1.5449    2.7640    0.5017 H   0  0  0  0  0  0  0  0  0  0  0  0
   -0.7929    3.1383   -0.9891 H   0  0  0  0  0  0  0  0  0  0  0  0
   -0.1924    1.3169    0.0131 C   0  0  0  0  0  0  0  0  0  0  0  0
    1.0554    0.7989    0.0000 C   0  0  0  0  0  0  0  0  0  0  0  0
    1.9103    1.3117   -0.0048 H   0  0  0  0  0  0  0  0  0  0  0  0
    0.9269   -0.5652   -0.0035 N   0  0  0  0  0  4  0  0  0  0  0  0
    1.6824   -1.2231   -0.0046 H   0  0  0  0  0  0  0  0  0  0  0  0
   -0.3580   -0.8742   -0.0058 C   0  0  0  0  0  0  0  0  0  0  0  0
   -0.7344   -1.7967   -0.0096 H   0  0  0  0  0  0  0  0  0  0  0  0
   -1.0554    0.2460    0.0000 N   0  0  0  0  0  0  0  0  0  0  0  0
   -2.0530    0.3085   -0.0049 H   0  0  0  0  0  0  0  0  0  0  0  0
    2.0416   -4.4750    0.2960 C   0  0  0  0  0  0  0  0  0  0  0  0
    2.5333   -5.3122    0.5400 H   0  0  0  0  0  0  0  0  0  0  0  0
    1.4515   -4.1368    1.1478 H   0  0  0  0  0  0  0  0  0  0  0  0
    1.3940   -4.6856   -0.5551 H   0  0  0  0  0  0  0  0  0  0  0  0
    3.0834   -3.3995   -0.0666 C   0  0  0  0  0  0  0  0  0  0  0  0
    2.7976   -2.2075   -0.0054 O   0  0  0  0  0  0  0  0  0  0  0  0
    4.3094   -3.8171   -0.3952 N   0  0  0  0  0  0  0  0  0  0  0  0
    5.2780   -2.8165   -0.8277 C   0  0  0  0  0  0  0  0  0  0  0  0
    5.5038   -2.1847   -0.0788 H   0  0  0  0  0  0  0  0  0  0  0  0
    4.9025   -2.2695   -1.6925 H   0  0  0  0  0  0  0  0  0  0  0  0
    6.5009   -3.6550   -1.2217 C   0  0  0  0  0  0  0  0  0  0  0  0
    6.5377   -3.7812   -2.2179 H   0  0  0  0  0  0  0  0  0  0  0  0
    7.3480   -3.2091   -0.9216 H   0  0  0  0  0  0  0  0  0  0  0  0
    6.3149   -4.9713   -0.5247 C   0  0  0  0  0  0  0  0  0  0  0  0
    6.7615   -5.7070   -1.0560 H   0  0  0  0  0  0  0  0  0  0  0  0
    6.7529   -4.9414    0.3865 H   0  0  0  0  0  0  0  0  0  0  0  0
    4.8560   -5.1855   -0.4204 C   0  0  0  0  0  0  0  0  0  0  0  0
    4.4902   -5.6886   -1.2082 H   0  0  0  0  0  0  0  0  0  0  0  0
    4.6035   -5.6740    0.4204 H   0  0  0  0  0  0  0  0  0  0  0  0
  1  5  1  0
  5  6  2  0
  6  8  1  0
  8 10  2  0
 10 12  1  0
 12  5  1  0
  1  2  1  0
  1  3  1  0
  1  4  1  0
  6  7  1  0
  8  9  1  0
 10 11  1  0
 12 13  1  0
 14 18  1  0
 18 19  2  0
 18 20  1  0
 20 21  1  0
 21 24  1  0
 24 27  1  0
 27 30  1  0
 30 20  1  0
 14 15  1  0
 14 16  1  0
 14 17  1  0
 21 22  1  0
 21 23  1  0
 24 25  1  0
 24 26  1  0
 27 28  1  0
 27 29  1  0
 30 31  1  0
 30 32  1  0
M  CHG  1   8   1
M  END
>  <PDB_ID>  (93) 
pdb3ks7

>  <RESIDUE_NAME>  (93) 
HIP   PRO

>  <FRAG_NAME>  (93) 
MIMM   N1PA

>  <FRAG_ATOM_NUM>  (93) 
fragi: 13  fragj: 19

>  <atom.prop.CHAIN_ID>  (93) 
A A A A A A A A A A A A A Z Z Z Z Z Z Z Z Z Z Z Z Z Z Z Z Z Z Z

>  <atom.prop.IS_HEAVY_ATOM>  (93) 
1 0 0 0 1 1 0 1 0 1 0 1 0 1 0 0 0 1 1 1 1 0 0 1 0 0 1 0 0 1 0 0

>  <DIFUSE_FUNC_ATOM>  (93) 
n/a

>  <FINAL_SINGLE_POINT_ENERGY>  (93) 
0

>  <NONCOV_INTER_ENERGY_QM>  (93) 
0

>  <FF_Energy>  (93) 
-15.77

>  <QM_Energy>  (93) 
-25.97

>  <Index>  (93) 
583

$$$$
MIMM-pdb3ks7-B-HIP-385:N1PA-pdb3ks7-B-PRO-382
     RDKit          3D

 32 32  0  0  0  0  0  0  0  0999 V2000
   -0.6690    2.7362   -0.0279 C   0  0  0  0  0  0  0  0  0  0  0  0
   -0.0265    3.3006    0.5020 H   0  0  0  0  0  0  0  0  0  0  0  0
   -1.5717    2.7798    0.4120 H   0  0  0  0  0  0  0  0  0  0  0  0
   -0.7495    3.1467   -1.0345 H   0  0  0  0  0  0  0  0  0  0  0  0
   -0.1942    1.3196    0.0059 C   0  0  0  0  0  0  0  0  0  0  0  0
    1.0584    0.7989    0.0000 C   0  0  0  0  0  0  0  0  0  0  0  0
    1.9117    1.3116   -0.0095 H   0  0  0  0  0  0  0  0  0  0  0  0
    0.9280   -0.5665    0.0103 N   0  0  0  0  0  4  0  0  0  0  0  0
    1.6837   -1.2250    0.0257 H   0  0  0  0  0  0  0  0  0  0  0  0
   -0.3578   -0.8764   -0.0049 C   0  0  0  0  0  0  0  0  0  0  0  0
   -0.7338   -1.7978   -0.0162 H   0  0  0  0  0  0  0  0  0  0  0  0
   -1.0584    0.2458    0.0000 N   0  0  0  0  0  0  0  0  0  0  0  0
   -2.0556    0.3072   -0.0016 H   0  0  0  0  0  0  0  0  0  0  0  0
    1.4970   -4.5313    0.2866 C   0  0  0  0  0  0  0  0  0  0  0  0
    1.8870   -5.4285    0.4974 H   0  0  0  0  0  0  0  0  0  0  0  0
    0.9550   -4.1611    1.1568 H   0  0  0  0  0  0  0  0  0  0  0  0
    0.8246   -4.6199   -0.5666 H   0  0  0  0  0  0  0  0  0  0  0  0
    2.6389   -3.5714   -0.0326 C   0  0  0  0  0  0  0  0  0  0  0  0
    2.4745   -2.3547    0.0888 O   0  0  0  0  0  0  0  0  0  0  0  0
    3.8130   -4.1043   -0.4068 N   0  0  0  0  0  0  0  0  0  0  0  0
    4.8803   -3.2073   -0.7748 C   0  0  0  0  0  0  0  0  0  0  0  0
    5.1324   -2.6012   -0.0080 H   0  0  0  0  0  0  0  0  0  0  0  0
    4.6098   -2.6175   -1.6507 H   0  0  0  0  0  0  0  0  0  0  0  0
    6.0420   -4.1542   -1.0927 C   0  0  0  0  0  0  0  0  0  0  0  0
    6.1171   -4.2872   -2.0897 H   0  0  0  0  0  0  0  0  0  0  0  0
    6.9099   -3.7610   -0.7630 H   0  0  0  0  0  0  0  0  0  0  0  0
    5.7124   -5.3986   -0.4028 C   0  0  0  0  0  0  0  0  0  0  0  0
    6.1536   -6.1904   -0.8527 H   0  0  0  0  0  0  0  0  0  0  0  0
    6.0308   -5.3749    0.5574 H   0  0  0  0  0  0  0  0  0  0  0  0
    4.2399   -5.5032   -0.4709 C   0  0  0  0  0  0  0  0  0  0  0  0
    3.9314   -5.9242   -1.3263 H   0  0  0  0  0  0  0  0  0  0  0  0
    3.8626   -6.0206    0.3013 H   0  0  0  0  0  0  0  0  0  0  0  0
  1  5  1  0
  5  6  2  0
  6  8  1  0
  8 10  2  0
 10 12  1  0
 12  5  1  0
  1  2  1  0
  1  3  1  0
  1  4  1  0
  6  7  1  0
  8  9  1  0
 10 11  1  0
 12 13  1  0
 14 18  1  0
 18 19  2  0
 18 20  1  0
 20 21  1  0
 21 24  1  0
 24 27  1  0
 27 30  1  0
 30 20  1  0
 14 15  1  0
 14 16  1  0
 14 17  1  0
 21 22  1  0
 21 23  1  0
 24 25  1  0
 24 26  1  0
 27 28  1  0
 27 29  1  0
 30 31  1  0
 30 32  1  0
M  CHG  1   8   1
M  END
>  <PDB_ID>  (94) 
pdb3ks7

>  <RESIDUE_NAME>  (94) 
HIP   PRO

>  <FRAG_NAME>  (94) 
MIMM   N1PA

>  <FRAG_ATOM_NUM>  (94) 
fragi: 13  fragj: 19

>  <atom.prop.CHAIN_ID>  (94) 
A A A A A A A A A A A A A Z Z Z Z Z Z Z Z Z Z Z Z Z Z Z Z Z Z Z

>  <atom.prop.IS_HEAVY_ATOM>  (94) 
1 0 0 0 1 1 0 1 0 1 0 1 0 1 0 0 0 1 1 1 1 0 0 1 0 0 1 0 0 1 0 0

>  <DIFUSE_FUNC_ATOM>  (94) 
n/a

>  <FINAL_SINGLE_POINT_ENERGY>  (94) 
0

>  <NONCOV_INTER_ENERGY_QM>  (94) 
0

>  <FF_Energy>  (94) 
-10.34

>  <QM_Energy>  (94) 
-21.5

>  <Index>  (94) 
585

$$$$
MIMM-pdb3ks7-C-HIP-385:N1PA-pdb3ks7-C-PRO-382
     RDKit          3D

 32 32  0  0  0  0  0  0  0  0999 V2000
   -0.6731    2.7318   -0.0371 C   0  0  0  0  0  0  0  0  0  0  0  0
    0.0170    3.3112    0.4117 H   0  0  0  0  0  0  0  0  0  0  0  0
   -1.5274    2.7893    0.4918 H   0  0  0  0  0  0  0  0  0  0  0  0
   -0.8540    3.1129   -1.0422 H   0  0  0  0  0  0  0  0  0  0  0  0
   -0.1957    1.3196   -0.0088 C   0  0  0  0  0  0  0  0  0  0  0  0
    1.0559    0.8006   -0.0000 C   0  0  0  0  0  0  0  0  0  0  0  0
    1.9096    1.3138    0.0032 H   0  0  0  0  0  0  0  0  0  0  0  0
    0.9286   -0.5681    0.0057 N   0  0  0  0  0  4  0  0  0  0  0  0
    1.6858   -1.2234    0.0105 H   0  0  0  0  0  0  0  0  0  0  0  0
   -0.3552   -0.8770    0.0025 C   0  0  0  0  0  0  0  0  0  0  0  0
   -0.7329   -1.7983    0.0031 H   0  0  0  0  0  0  0  0  0  0  0  0
   -1.0559    0.2462    0.0000 N   0  0  0  0  0  0  0  0  0  0  0  0
   -2.0538    0.3048    0.0034 H   0  0  0  0  0  0  0  0  0  0  0  0
    2.0493   -4.4796    0.1947 C   0  0  0  0  0  0  0  0  0  0  0  0
    2.5153   -5.3518    0.3644 H   0  0  0  0  0  0  0  0  0  0  0  0
    1.5153   -4.1724    1.0938 H   0  0  0  0  0  0  0  0  0  0  0  0
    1.3525   -4.5978   -0.6351 H   0  0  0  0  0  0  0  0  0  0  0  0
    3.1039   -3.4318   -0.1516 C   0  0  0  0  0  0  0  0  0  0  0  0
    2.9047   -2.2385    0.0833 O   0  0  0  0  0  0  0  0  0  0  0  0
    4.2441   -3.8700   -0.6843 N   0  0  0  0  0  0  0  0  0  0  0  0
    5.2096   -2.8884   -1.0820 C   0  0  0  0  0  0  0  0  0  0  0  0
    5.4592   -2.2835   -0.3160 H   0  0  0  0  0  0  0  0  0  0  0  0
    4.8242   -2.3084   -1.9204 H   0  0  0  0  0  0  0  0  0  0  0  0
    6.4129   -3.7269   -1.5195 C   0  0  0  0  0  0  0  0  0  0  0  0
    6.4746   -3.7471   -2.5278 H   0  0  0  0  0  0  0  0  0  0  0  0
    7.2669   -3.3211   -1.1659 H   0  0  0  0  0  0  0  0  0  0  0  0
    6.1811   -5.0656   -0.9665 C   0  0  0  0  0  0  0  0  0  0  0  0
    6.6112   -5.7736   -1.5540 H   0  0  0  0  0  0  0  0  0  0  0  0
    6.6008   -5.1486   -0.0450 H   0  0  0  0  0  0  0  0  0  0  0  0
    4.7240   -5.2352   -0.9059 C   0  0  0  0  0  0  0  0  0  0  0  0
    4.3474   -5.6015   -1.7616 H   0  0  0  0  0  0  0  0  0  0  0  0
    4.4406   -5.8309   -0.1475 H   0  0  0  0  0  0  0  0  0  0  0  0
  1  5  1  0
  5  6  2  0
  6  8  1  0
  8 10  2  0
 10 12  1  0
 12  5  1  0
  1  2  1  0
  1  3  1  0
  1  4  1  0
  6  7  1  0
  8  9  1  0
 10 11  1  0
 12 13  1  0
 14 18  1  0
 18 19  2  0
 18 20  1  0
 20 21  1  0
 21 24  1  0
 24 27  1  0
 27 30  1  0
 30 20  1  0
 14 15  1  0
 14 16  1  0
 14 17  1  0
 21 22  1  0
 21 23  1  0
 24 25  1  0
 24 26  1  0
 27 28  1  0
 27 29  1  0
 30 31  1  0
 30 32  1  0
M  CHG  1   8   1
M  END
>  <PDB_ID>  (95) 
pdb3ks7

>  <RESIDUE_NAME>  (95) 
HIP   PRO

>  <FRAG_NAME>  (95) 
MIMM   N1PA

>  <FRAG_ATOM_NUM>  (95) 
fragi: 13  fragj: 19

>  <atom.prop.CHAIN_ID>  (95) 
A A A A A A A A A A A A A Z Z Z Z Z Z Z Z Z Z Z Z Z Z Z Z Z Z Z

>  <atom.prop.IS_HEAVY_ATOM>  (95) 
1 0 0 0 1 1 0 1 0 1 0 1 0 1 0 0 0 1 1 1 1 0 0 1 0 0 1 0 0 1 0 0

>  <DIFUSE_FUNC_ATOM>  (95) 
n/a

>  <FINAL_SINGLE_POINT_ENERGY>  (95) 
0

>  <NONCOV_INTER_ENERGY_QM>  (95) 
0

>  <FF_Energy>  (95) 
-16.65

>  <QM_Energy>  (95) 
-26.68

>  <Index>  (95) 
587

$$$$
MIMM-pdb4j8c-A-HIP-24:N1PA-pdb4j8c-A-PRO-44
     RDKit          3D

 32 32  0  0  0  0  0  0  0  0999 V2000
   -0.6719    2.7174    0.0041 C   0  0  0  0  0  0  0  0  0  0  0  0
   -1.2522    2.8493    0.8177 H   0  0  0  0  0  0  0  0  0  0  0  0
   -1.2410    2.8631   -0.8156 H   0  0  0  0  0  0  0  0  0  0  0  0
    0.1287    3.4571    0.0153 H   0  0  0  0  0  0  0  0  0  0  0  0
   -0.1872    1.3099   -0.0051 C   0  0  0  0  0  0  0  0  0  0  0  0
    1.0682    0.7902    0.0000 C   0  0  0  0  0  0  0  0  0  0  0  0
    1.9195    1.3033    0.0044 H   0  0  0  0  0  0  0  0  0  0  0  0
    0.9312   -0.5712   -0.0005 N   0  0  0  0  0  4  0  0  0  0  0  0
    1.6736   -1.2370   -0.0033 H   0  0  0  0  0  0  0  0  0  0  0  0
   -0.3600   -0.8529    0.0018 C   0  0  0  0  0  0  0  0  0  0  0  0
   -0.7440   -1.7855    0.0056 H   0  0  0  0  0  0  0  0  0  0  0  0
   -1.0682    0.2565   -0.0000 N   0  0  0  0  0  0  0  0  0  0  0  0
   -2.0568    0.3235    0.0010 H   0  0  0  0  0  0  0  0  0  0  0  0
    4.6880   -4.2180   -0.5416 C   0  0  0  0  0  0  0  0  0  0  0  0
    4.8936   -4.8114   -1.3436 H   0  0  0  0  0  0  0  0  0  0  0  0
    5.4170   -3.4128   -0.4511 H   0  0  0  0  0  0  0  0  0  0  0  0
    4.8565   -4.7866    0.3729 H   0  0  0  0  0  0  0  0  0  0  0  0
    3.2442   -3.7151   -0.6196 C   0  0  0  0  0  0  0  0  0  0  0  0
    2.9167   -2.6409   -0.1097 O   0  0  0  0  0  0  0  0  0  0  0  0
    2.3728   -4.5421   -1.1793 N   0  0  0  0  0  0  0  0  0  0  0  0
    0.9323   -4.2671   -1.1950 C   0  0  0  0  0  0  0  0  0  0  0  0
    0.7554   -3.3146   -1.5123 H   0  0  0  0  0  0  0  0  0  0  0  0
    0.4376   -4.4453   -0.2402 H   0  0  0  0  0  0  0  0  0  0  0  0
    0.3911   -5.2519   -2.2133 C   0  0  0  0  0  0  0  0  0  0  0  0
   -0.5200   -5.5886   -1.9198 H   0  0  0  0  0  0  0  0  0  0  0  0
    0.2650   -4.7919   -3.1086 H   0  0  0  0  0  0  0  0  0  0  0  0
    1.3647   -6.3014   -2.2734 C   0  0  0  0  0  0  0  0  0  0  0  0
    1.0690   -7.1154   -1.6970 H   0  0  0  0  0  0  0  0  0  0  0  0
    1.4262   -6.6952   -3.2337 H   0  0  0  0  0  0  0  0  0  0  0  0
    2.6835   -5.8230   -1.8358 C   0  0  0  0  0  0  0  0  0  0  0  0
    3.1185   -6.4471   -1.1821 H   0  0  0  0  0  0  0  0  0  0  0  0
    3.3108   -5.6718   -2.6056 H   0  0  0  0  0  0  0  0  0  0  0  0
  1  5  1  0
  5  6  2  0
  6  8  1  0
  8 10  2  0
 10 12  1  0
 12  5  1  0
  1  2  1  0
  1  3  1  0
  1  4  1  0
  6  7  1  0
  8  9  1  0
 10 11  1  0
 12 13  1  0
 14 18  1  0
 18 19  2  0
 18 20  1  0
 20 21  1  0
 21 24  1  0
 24 27  1  0
 27 30  1  0
 30 20  1  0
 14 15  1  0
 14 16  1  0
 14 17  1  0
 21 22  1  0
 21 23  1  0
 24 25  1  0
 24 26  1  0
 27 28  1  0
 27 29  1  0
 30 31  1  0
 30 32  1  0
M  CHG  1   8   1
M  END
>  <PDB_ID>  (96) 
pdb4j8c

>  <RESIDUE_NAME>  (96) 
HIP   PRO

>  <FRAG_NAME>  (96) 
MIMM   N1PA

>  <FRAG_ATOM_NUM>  (96) 
fragi: 13  fragj: 19

>  <atom.prop.CHAIN_ID>  (96) 
A A A A A A A A A A A A A Z Z Z Z Z Z Z Z Z Z Z Z Z Z Z Z Z Z Z

>  <atom.prop.IS_HEAVY_ATOM>  (96) 
1 0 0 0 1 1 0 1 0 1 0 1 0 1 0 0 0 1 1 1 1 0 0 1 0 0 1 0 0 1 0 0

>  <DIFUSE_FUNC_ATOM>  (96) 
n/a

>  <FINAL_SINGLE_POINT_ENERGY>  (96) 
0

>  <NONCOV_INTER_ENERGY_QM>  (96) 
0

>  <FF_Energy>  (96) 
-16.73

>  <QM_Energy>  (96) 
-24.52

>  <Index>  (96) 
605

$$$$
MIMM-pdb4hzc-F-HIP-21:N1PA-pdb4hzc-F-PRO-18
     RDKit          3D

 32 32  0  0  0  0  0  0  0  0999 V2000
   -0.7016    2.7360    0.0197 C   0  0  0  0  0  0  0  0  0  0  0  0
   -1.4612    2.8284   -0.6234 H   0  0  0  0  0  0  0  0  0  0  0  0
    0.0502    3.3306   -0.2651 H   0  0  0  0  0  0  0  0  0  0  0  0
   -1.0334    3.0241    1.0172 H   0  0  0  0  0  0  0  0  0  0  0  0
   -0.2180    1.3144   -0.0272 C   0  0  0  0  0  0  0  0  0  0  0  0
    1.0688    0.7859    0.0000 C   0  0  0  0  0  0  0  0  0  0  0  0
    1.9031    1.3248    0.0137 H   0  0  0  0  0  0  0  0  0  0  0  0
    0.9484   -0.5625    0.0051 N   0  0  0  0  0  4  0  0  0  0  0  0
    1.6919   -1.2323    0.0043 H   0  0  0  0  0  0  0  0  0  0  0  0
   -0.3624   -0.8857    0.0106 C   0  0  0  0  0  0  0  0  0  0  0  0
   -0.7303   -1.7962    0.0221 H   0  0  0  0  0  0  0  0  0  0  0  0
   -1.0688    0.2584   -0.0000 N   0  0  0  0  0  0  0  0  0  0  0  0
   -2.0678    0.3006    0.0104 H   0  0  0  0  0  0  0  0  0  0  0  0
   -5.1151   -1.2194   -1.1428 C   0  0  0  0  0  0  0  0  0  0  0  0
   -6.0492   -1.2680   -1.4445 H   0  0  0  0  0  0  0  0  0  0  0  0
   -4.4944   -1.5850   -1.9608 H   0  0  0  0  0  0  0  0  0  0  0  0
   -4.8514   -1.7257   -0.2142 H   0  0  0  0  0  0  0  0  0  0  0  0
   -4.7325    0.2122   -1.0574 C   0  0  0  0  0  0  0  0  0  0  0  0
   -3.9108    0.5599   -0.2306 O   0  0  0  0  0  0  0  0  0  0  0  0
   -5.2925    1.0437   -1.9572 N   0  0  0  0  0  0  0  0  0  0  0  0
   -4.9053    2.4592   -2.0040 C   0  0  0  0  0  0  0  0  0  0  0  0
   -3.9270    2.5565   -2.2487 H   0  0  0  0  0  0  0  0  0  0  0  0
   -5.1127    2.9879   -1.0737 H   0  0  0  0  0  0  0  0  0  0  0  0
   -5.7453    3.0234   -3.1712 C   0  0  0  0  0  0  0  0  0  0  0  0
   -6.0807    3.9399   -2.9488 H   0  0  0  0  0  0  0  0  0  0  0  0
   -5.1978    3.0654   -4.0076 H   0  0  0  0  0  0  0  0  0  0  0  0
   -6.8857    2.0561   -3.3219 C   0  0  0  0  0  0  0  0  0  0  0  0
   -7.6240    2.2851   -2.6854 H   0  0  0  0  0  0  0  0  0  0  0  0
   -7.2376    2.0764   -4.2589 H   0  0  0  0  0  0  0  0  0  0  0  0
   -6.2910    0.7110   -2.9972 C   0  0  0  0  0  0  0  0  0  0  0  0
   -6.9766    0.0852   -2.6345 H   0  0  0  0  0  0  0  0  0  0  0  0
   -5.8445    0.3058   -3.7917 H   0  0  0  0  0  0  0  0  0  0  0  0
  1  5  1  0
  5  6  2  0
  6  8  1  0
  8 10  2  0
 10 12  1  0
 12  5  1  0
  1  2  1  0
  1  3  1  0
  1  4  1  0
  6  7  1  0
  8  9  1  0
 10 11  1  0
 12 13  1  0
 14 18  1  0
 18 19  2  0
 18 20  1  0
 20 21  1  0
 21 24  1  0
 24 27  1  0
 27 30  1  0
 30 20  1  0
 14 15  1  0
 14 16  1  0
 14 17  1  0
 21 22  1  0
 21 23  1  0
 24 25  1  0
 24 26  1  0
 27 28  1  0
 27 29  1  0
 30 31  1  0
 30 32  1  0
M  CHG  1   8   1
M  END
>  <PDB_ID>  (97) 
pdb4hzc

>  <RESIDUE_NAME>  (97) 
HIP   PRO

>  <FRAG_NAME>  (97) 
MIMM   N1PA

>  <FRAG_ATOM_NUM>  (97) 
fragi: 13  fragj: 19

>  <atom.prop.CHAIN_ID>  (97) 
A A A A A A A A A A A A A Z Z Z Z Z Z Z Z Z Z Z Z Z Z Z Z Z Z Z

>  <atom.prop.IS_HEAVY_ATOM>  (97) 
1 0 0 0 1 1 0 1 0 1 0 1 0 1 0 0 0 1 1 1 1 0 0 1 0 0 1 0 0 1 0 0

>  <DIFUSE_FUNC_ATOM>  (97) 
n/a

>  <FINAL_SINGLE_POINT_ENERGY>  (97) 
0

>  <NONCOV_INTER_ENERGY_QM>  (97) 
0

>  <FF_Energy>  (97) 
-16.19

>  <QM_Energy>  (97) 
-24.38

>  <Index>  (97) 
607

$$$$
MIMM-pdb3mbr-X-HIP-38:N1PA-pdb3mbr-X-PRO-247
     RDKit          3D

 32 32  0  0  0  0  0  0  0  0999 V2000
   -0.6786    2.7679   -0.0320 C   0  0  0  0  0  0  0  0  0  0  0  0
   -0.2401    3.2325    0.7495 H   0  0  0  0  0  0  0  0  0  0  0  0
   -1.6738    2.7489    0.1357 H   0  0  0  0  0  0  0  0  0  0  0  0
   -0.4877    3.3473   -0.9353 H   0  0  0  0  0  0  0  0  0  0  0  0
   -0.1833    1.3318   -0.0602 C   0  0  0  0  0  0  0  0  0  0  0  0
    1.0658    0.7967    0.0000 C   0  0  0  0  0  0  0  0  0  0  0  0
    1.9247    1.3003    0.0313 H   0  0  0  0  0  0  0  0  0  0  0  0
    0.9366   -0.5884    0.0109 N   0  0  0  0  0  4  0  0  0  0  0  0
    1.6821   -1.2412    0.0076 H   0  0  0  0  0  0  0  0  0  0  0  0
   -0.3688   -0.8886    0.0246 C   0  0  0  0  0  0  0  0  0  0  0  0
   -0.7533   -1.7984    0.0494 H   0  0  0  0  0  0  0  0  0  0  0  0
   -1.0658    0.2583   -0.0000 N   0  0  0  0  0  0  0  0  0  0  0  0
   -2.0562    0.3280    0.0205 H   0  0  0  0  0  0  0  0  0  0  0  0
   -4.8225   -0.1999    1.5463 C   0  0  0  0  0  0  0  0  0  0  0  0
   -5.7918   -0.2483    1.7613 H   0  0  0  0  0  0  0  0  0  0  0  0
   -4.5533   -1.1232    1.0332 H   0  0  0  0  0  0  0  0  0  0  0  0
   -4.2106   -0.0200    2.4302 H   0  0  0  0  0  0  0  0  0  0  0  0
   -4.6186    0.9904    0.5838 C   0  0  0  0  0  0  0  0  0  0  0  0
   -3.6397    1.0384   -0.1638 O   0  0  0  0  0  0  0  0  0  0  0  0
   -5.4858    2.0158    0.6754 N   0  0  0  0  0  0  0  0  0  0  0  0
   -5.3386    3.1918   -0.2087 C   0  0  0  0  0  0  0  0  0  0  0  0
   -5.1125    2.9014   -1.1433 H   0  0  0  0  0  0  0  0  0  0  0  0
   -4.5861    3.8772    0.1814 H   0  0  0  0  0  0  0  0  0  0  0  0
   -6.7234    3.8557   -0.1946 C   0  0  0  0  0  0  0  0  0  0  0  0
   -6.6462    4.8401   -0.2740 H   0  0  0  0  0  0  0  0  0  0  0  0
   -7.3026    3.4866   -0.9072 H   0  0  0  0  0  0  0  0  0  0  0  0
   -7.2498    3.4699    1.1751 C   0  0  0  0  0  0  0  0  0  0  0  0
   -6.8902    4.0903    1.8713 H   0  0  0  0  0  0  0  0  0  0  0  0
   -8.2489    3.5013    1.1825 H   0  0  0  0  0  0  0  0  0  0  0  0
   -6.7525    2.0490    1.4089 C   0  0  0  0  0  0  0  0  0  0  0  0
   -6.6084    1.8784    2.3816 H   0  0  0  0  0  0  0  0  0  0  0  0
   -7.3979    1.3808    1.0416 H   0  0  0  0  0  0  0  0  0  0  0  0
  1  5  1  0
  5  6  2  0
  6  8  1  0
  8 10  2  0
 10 12  1  0
 12  5  1  0
  1  2  1  0
  1  3  1  0
  1  4  1  0
  6  7  1  0
  8  9  1  0
 10 11  1  0
 12 13  1  0
 14 18  1  0
 18 19  2  0
 18 20  1  0
 20 21  1  0
 21 24  1  0
 24 27  1  0
 27 30  1  0
 30 20  1  0
 14 15  1  0
 14 16  1  0
 14 17  1  0
 21 22  1  0
 21 23  1  0
 24 25  1  0
 24 26  1  0
 27 28  1  0
 27 29  1  0
 30 31  1  0
 30 32  1  0
M  CHG  1   8   1
M  END
>  <PDB_ID>  (98) 
pdb3mbr

>  <RESIDUE_NAME>  (98) 
HIP   PRO

>  <FRAG_NAME>  (98) 
MIMM   N1PA

>  <FRAG_ATOM_NUM>  (98) 
fragi: 13  fragj: 19

>  <atom.prop.CHAIN_ID>  (98) 
A A A A A A A A A A A A A Z Z Z Z Z Z Z Z Z Z Z Z Z Z Z Z Z Z Z

>  <atom.prop.IS_HEAVY_ATOM>  (98) 
1 0 0 0 1 1 0 1 0 1 0 1 0 1 0 0 0 1 1 1 1 0 0 1 0 0 1 0 0 1 0 0

>  <DIFUSE_FUNC_ATOM>  (98) 
n/a

>  <FINAL_SINGLE_POINT_ENERGY>  (98) 
0

>  <NONCOV_INTER_ENERGY_QM>  (98) 
0

>  <FF_Energy>  (98) 
-16.36

>  <QM_Energy>  (98) 
-26.84

>  <Index>  (98) 
615

$$$$
MIMM-pdb3mq0-B-HIP-99:N1PA-pdb3mq0-A-PRO-43
     RDKit          3D

 32 32  0  0  0  0  0  0  0  0999 V2000
   -0.6718    2.7419    0.0058 C   0  0  0  0  0  0  0  0  0  0  0  0
   -1.1000    2.9299   -0.8857 H   0  0  0  0  0  0  0  0  0  0  0  0
    0.1295    3.3428    0.1062 H   0  0  0  0  0  0  0  0  0  0  0  0
   -1.3859    2.9708    0.7969 H   0  0  0  0  0  0  0  0  0  0  0  0
   -0.1945    1.3201    0.0067 C   0  0  0  0  0  0  0  0  0  0  0  0
    1.0562    0.8005    0.0000 C   0  0  0  0  0  0  0  0  0  0  0  0
    1.9102    1.3131   -0.0010 H   0  0  0  0  0  0  0  0  0  0  0  0
    0.9275   -0.5668   -0.0039 N   0  0  0  0  0  4  0  0  0  0  0  0
    1.6843   -1.2233   -0.0075 H   0  0  0  0  0  0  0  0  0  0  0  0
   -0.3575   -0.8771   -0.0029 C   0  0  0  0  0  0  0  0  0  0  0  0
   -0.7330   -1.7988   -0.0028 H   0  0  0  0  0  0  0  0  0  0  0  0
   -1.0562    0.2450    0.0000 N   0  0  0  0  0  0  0  0  0  0  0  0
   -2.0540    0.3066   -0.0032 H   0  0  0  0  0  0  0  0  0  0  0  0
    3.4971   -4.7219   -0.8961 C   0  0  0  0  0  0  0  0  0  0  0  0
    3.6587   -5.6213   -0.4785 H   0  0  0  0  0  0  0  0  0  0  0  0
    2.6888   -4.8235   -1.6203 H   0  0  0  0  0  0  0  0  0  0  0  0
    4.4063   -4.3644   -1.3794 H   0  0  0  0  0  0  0  0  0  0  0  0
    3.0964   -3.7587    0.2062 C   0  0  0  0  0  0  0  0  0  0  0  0
    2.9084   -2.5663   -0.0393 O   0  0  0  0  0  0  0  0  0  0  0  0
    2.9803   -4.2678    1.4351 N   0  0  0  0  0  0  0  0  0  0  0  0
    2.6434   -3.3967    2.5680 C   0  0  0  0  0  0  0  0  0  0  0  0
    1.6845   -3.0939    2.5122 H   0  0  0  0  0  0  0  0  0  0  0  0
    3.3140   -2.5391    2.6221 H   0  0  0  0  0  0  0  0  0  0  0  0
    2.8435   -4.3104    3.7824 C   0  0  0  0  0  0  0  0  0  0  0  0
    3.2523   -3.8016    4.5451 H   0  0  0  0  0  0  0  0  0  0  0  0
    1.9692   -4.6988    4.0820 H   0  0  0  0  0  0  0  0  0  0  0  0
    3.7713   -5.3888    3.3043 C   0  0  0  0  0  0  0  0  0  0  0  0
    4.7227   -5.0866    3.3728 H   0  0  0  0  0  0  0  0  0  0  0  0
    3.6477   -6.2208    3.8464 H   0  0  0  0  0  0  0  0  0  0  0  0
    3.3784   -5.6147    1.8710 C   0  0  0  0  0  0  0  0  0  0  0  0
    4.1467   -5.9471    1.3291 H   0  0  0  0  0  0  0  0  0  0  0  0
    2.6116   -6.2495    1.7975 H   0  0  0  0  0  0  0  0  0  0  0  0
  1  5  1  0
  5  6  2  0
  6  8  1  0
  8 10  2  0
 10 12  1  0
 12  5  1  0
  1  2  1  0
  1  3  1  0
  1  4  1  0
  6  7  1  0
  8  9  1  0
 10 11  1  0
 12 13  1  0
 14 18  1  0
 18 19  2  0
 18 20  1  0
 20 21  1  0
 21 24  1  0
 24 27  1  0
 27 30  1  0
 30 20  1  0
 14 15  1  0
 14 16  1  0
 14 17  1  0
 21 22  1  0
 21 23  1  0
 24 25  1  0
 24 26  1  0
 27 28  1  0
 27 29  1  0
 30 31  1  0
 30 32  1  0
M  CHG  1   8   1
M  END
>  <PDB_ID>  (99) 
pdb3mq0

>  <RESIDUE_NAME>  (99) 
HIP   PRO

>  <FRAG_NAME>  (99) 
MIMM   N1PA

>  <FRAG_ATOM_NUM>  (99) 
fragi: 13  fragj: 19

>  <atom.prop.CHAIN_ID>  (99) 
A A A A A A A A A A A A A Z Z Z Z Z Z Z Z Z Z Z Z Z Z Z Z Z Z Z

>  <atom.prop.IS_HEAVY_ATOM>  (99) 
1 0 0 0 1 1 0 1 0 1 0 1 0 1 0 0 0 1 1 1 1 0 0 1 0 0 1 0 0 1 0 0

>  <DIFUSE_FUNC_ATOM>  (99) 
n/a

>  <FINAL_SINGLE_POINT_ENERGY>  (99) 
0

>  <NONCOV_INTER_ENERGY_QM>  (99) 
0

>  <FF_Energy>  (99) 
-17.02

>  <QM_Energy>  (99) 
-25.13

>  <Index>  (99) 
622

$$$$
MIMM-pdb4j7a-B-HIP-333:N1PA-pdb4j7a-B-PRO-231
     RDKit          3D

 32 32  0  0  0  0  0  0  0  0999 V2000
   -0.6558    2.7382   -0.0323 C   0  0  0  0  0  0  0  0  0  0  0  0
   -1.3444    2.8469   -0.7598 H   0  0  0  0  0  0  0  0  0  0  0  0
    0.1290    3.3310   -0.2474 H   0  0  0  0  0  0  0  0  0  0  0  0
   -1.0903    3.0638    0.9129 H   0  0  0  0  0  0  0  0  0  0  0  0
   -0.1923    1.3221   -0.0263 C   0  0  0  0  0  0  0  0  0  0  0  0
    1.0570    0.7969    0.0000 C   0  0  0  0  0  0  0  0  0  0  0  0
    1.9129    1.3095    0.0039 H   0  0  0  0  0  0  0  0  0  0  0  0
    0.9278   -0.5680    0.0210 N   0  0  0  0  0  4  0  0  0  0  0  0
    1.6818   -1.2257    0.0419 H   0  0  0  0  0  0  0  0  0  0  0  0
   -0.3589   -0.8749    0.0078 C   0  0  0  0  0  0  0  0  0  0  0  0
   -0.7355   -1.7970    0.0053 H   0  0  0  0  0  0  0  0  0  0  0  0
   -1.0570    0.2460   -0.0000 N   0  0  0  0  0  0  0  0  0  0  0  0
   -2.0545    0.3101    0.0102 H   0  0  0  0  0  0  0  0  0  0  0  0
   -4.0634   -2.6945    2.7307 C   0  0  0  0  0  0  0  0  0  0  0  0
   -4.9871   -2.3641    2.4617 H   0  0  0  0  0  0  0  0  0  0  0  0
   -4.1197   -3.0539    3.7582 H   0  0  0  0  0  0  0  0  0  0  0  0
   -3.4378   -1.8046    2.6613 H   0  0  0  0  0  0  0  0  0  0  0  0
   -3.6364   -3.7636    1.7178 C   0  0  0  0  0  0  0  0  0  0  0  0
   -2.6325   -3.6044    1.0169 O   0  0  0  0  0  0  0  0  0  0  0  0
   -4.4075   -4.8593    1.6316 N   0  0  0  0  0  0  0  0  0  0  0  0
   -3.9053   -6.0070    0.8742 C   0  0  0  0  0  0  0  0  0  0  0  0
   -3.0225   -6.3313    1.2642 H   0  0  0  0  0  0  0  0  0  0  0  0
   -3.8014   -5.8097   -0.1927 H   0  0  0  0  0  0  0  0  0  0  0  0
   -4.9508   -7.0978    1.1312 C   0  0  0  0  0  0  0  0  0  0  0  0
   -5.1407   -7.6121    0.2881 H   0  0  0  0  0  0  0  0  0  0  0  0
   -4.6276   -7.7415    1.8325 H   0  0  0  0  0  0  0  0  0  0  0  0
   -6.1797   -6.3742    1.5998 C   0  0  0  0  0  0  0  0  0  0  0  0
   -6.7751   -6.1564    0.8132 H   0  0  0  0  0  0  0  0  0  0  0  0
   -6.7054   -6.9597    2.2332 H   0  0  0  0  0  0  0  0  0  0  0  0
   -5.7083   -5.1311    2.2795 C   0  0  0  0  0  0  0  0  0  0  0  0
   -6.3356   -4.3649    2.1322 H   0  0  0  0  0  0  0  0  0  0  0  0
   -5.5830   -5.2688    3.2642 H   0  0  0  0  0  0  0  0  0  0  0  0
  1  5  1  0
  5  6  2  0
  6  8  1  0
  8 10  2  0
 10 12  1  0
 12  5  1  0
  1  2  1  0
  1  3  1  0
  1  4  1  0
  6  7  1  0
  8  9  1  0
 10 11  1  0
 12 13  1  0
 14 18  1  0
 18 19  2  0
 18 20  1  0
 20 21  1  0
 21 24  1  0
 24 27  1  0
 27 30  1  0
 30 20  1  0
 14 15  1  0
 14 16  1  0
 14 17  1  0
 21 22  1  0
 21 23  1  0
 24 25  1  0
 24 26  1  0
 27 28  1  0
 27 29  1  0
 30 31  1  0
 30 32  1  0
M  CHG  1   8   1
M  END
>  <PDB_ID>  (100) 
pdb4j7a

>  <RESIDUE_NAME>  (100) 
HIP   PRO

>  <FRAG_NAME>  (100) 
MIMM   N1PA

>  <FRAG_ATOM_NUM>  (100) 
fragi: 13  fragj: 19

>  <atom.prop.CHAIN_ID>  (100) 
A A A A A A A A A A A A A Z Z Z Z Z Z Z Z Z Z Z Z Z Z Z Z Z Z Z

>  <atom.prop.IS_HEAVY_ATOM>  (100) 
1 0 0 0 1 1 0 1 0 1 0 1 0 1 0 0 0 1 1 1 1 0 0 1 0 0 1 0 0 1 0 0

>  <DIFUSE_FUNC_ATOM>  (100) 
n/a

>  <FINAL_SINGLE_POINT_ENERGY>  (100) 
0

>  <NONCOV_INTER_ENERGY_QM>  (100) 
0

>  <FF_Energy>  (100) 
-8.51

>  <QM_Energy>  (100) 
-13.73

>  <Index>  (100) 
624

$$$$
MIMM-pdb4j7a-D-HIP-333:N1PA-pdb4j7a-D-PRO-231
     RDKit          3D

 32 32  0  0  0  0  0  0  0  0999 V2000
   -0.6761    2.7275   -0.0107 C   0  0  0  0  0  0  0  0  0  0  0  0
   -1.3097    2.8460   -0.7839 H   0  0  0  0  0  0  0  0  0  0  0  0
    0.1137    3.3353   -0.1505 H   0  0  0  0  0  0  0  0  0  0  0  0
   -1.1842    3.0157    0.9095 H   0  0  0  0  0  0  0  0  0  0  0  0
   -0.1936    1.3209   -0.0067 C   0  0  0  0  0  0  0  0  0  0  0  0
    1.0572    0.8007    0.0000 C   0  0  0  0  0  0  0  0  0  0  0  0
    1.9109    1.3124    0.0071 H   0  0  0  0  0  0  0  0  0  0  0  0
    0.9265   -0.5663   -0.0037 N   0  0  0  0  0  4  0  0  0  0  0  0
    1.6828   -1.2237   -0.0114 H   0  0  0  0  0  0  0  0  0  0  0  0
   -0.3575   -0.8753    0.0029 C   0  0  0  0  0  0  0  0  0  0  0  0
   -0.7330   -1.7984    0.0104 H   0  0  0  0  0  0  0  0  0  0  0  0
   -1.0572    0.2431    0.0000 N   0  0  0  0  0  0  0  0  0  0  0  0
   -2.0538    0.3064    0.0019 H   0  0  0  0  0  0  0  0  0  0  0  0
   -3.5697   -3.1457    2.5517 C   0  0  0  0  0  0  0  0  0  0  0  0
   -4.5117   -2.9519    2.2261 H   0  0  0  0  0  0  0  0  0  0  0  0
   -3.6425   -3.5413    3.5648 H   0  0  0  0  0  0  0  0  0  0  0  0
   -3.0787   -2.1727    2.5381 H   0  0  0  0  0  0  0  0  0  0  0  0
   -2.9153   -4.1085    1.5580 C   0  0  0  0  0  0  0  0  0  0  0  0
   -1.8868   -3.7966    0.9554 O   0  0  0  0  0  0  0  0  0  0  0  0
   -3.5153   -5.2964    1.3906 N   0  0  0  0  0  0  0  0  0  0  0  0
   -2.7724   -6.3155    0.6492 C   0  0  0  0  0  0  0  0  0  0  0  0
   -1.8757   -6.5019    1.1040 H   0  0  0  0  0  0  0  0  0  0  0  0
   -2.6221   -6.0827   -0.4049 H   0  0  0  0  0  0  0  0  0  0  0  0
   -3.6259   -7.5813    0.8166 C   0  0  0  0  0  0  0  0  0  0  0  0
   -3.6911   -8.0817   -0.0528 H   0  0  0  0  0  0  0  0  0  0  0  0
   -3.2260   -8.1900    1.5086 H   0  0  0  0  0  0  0  0  0  0  0  0
   -4.9831   -7.0979    1.2540 C   0  0  0  0  0  0  0  0  0  0  0  0
   -5.5825   -6.9780    0.4478 H   0  0  0  0  0  0  0  0  0  0  0  0
   -5.4143   -7.7863    1.8568 H   0  0  0  0  0  0  0  0  0  0  0  0
   -4.7716   -5.8080    1.9678 C   0  0  0  0  0  0  0  0  0  0  0  0
   -5.5189   -5.1606    1.8001 H   0  0  0  0  0  0  0  0  0  0  0  0
   -4.6712   -5.9399    2.9580 H   0  0  0  0  0  0  0  0  0  0  0  0
  1  5  1  0
  5  6  2  0
  6  8  1  0
  8 10  2  0
 10 12  1  0
 12  5  1  0
  1  2  1  0
  1  3  1  0
  1  4  1  0
  6  7  1  0
  8  9  1  0
 10 11  1  0
 12 13  1  0
 14 18  1  0
 18 19  2  0
 18 20  1  0
 20 21  1  0
 21 24  1  0
 24 27  1  0
 27 30  1  0
 30 20  1  0
 14 15  1  0
 14 16  1  0
 14 17  1  0
 21 22  1  0
 21 23  1  0
 24 25  1  0
 24 26  1  0
 27 28  1  0
 27 29  1  0
 30 31  1  0
 30 32  1  0
M  CHG  1   8   1
M  END
>  <PDB_ID>  (101) 
pdb4j7a

>  <RESIDUE_NAME>  (101) 
HIP   PRO

>  <FRAG_NAME>  (101) 
MIMM   N1PA

>  <FRAG_ATOM_NUM>  (101) 
fragi: 13  fragj: 19

>  <atom.prop.CHAIN_ID>  (101) 
A A A A A A A A A A A A A Z Z Z Z Z Z Z Z Z Z Z Z Z Z Z Z Z Z Z

>  <atom.prop.IS_HEAVY_ATOM>  (101) 
1 0 0 0 1 1 0 1 0 1 0 1 0 1 0 0 0 1 1 1 1 0 0 1 0 0 1 0 0 1 0 0

>  <DIFUSE_FUNC_ATOM>  (101) 
n/a

>  <FINAL_SINGLE_POINT_ENERGY>  (101) 
0

>  <NONCOV_INTER_ENERGY_QM>  (101) 
0

>  <FF_Energy>  (101) 
-9.17

>  <QM_Energy>  (101) 
-15.46

>  <Index>  (101) 
626

$$$$
MIMM-pdb4kbx-A-HIP-286:N1PA-pdb4kbx-A-PRO-341
     RDKit          3D

 32 32  0  0  0  0  0  0  0  0999 V2000
   -0.6709    2.7294   -0.0240 C   0  0  0  0  0  0  0  0  0  0  0  0
   -1.6717    2.7246   -0.1460 H   0  0  0  0  0  0  0  0  0  0  0  0
   -0.2610    3.1938   -0.8193 H   0  0  0  0  0  0  0  0  0  0  0  0
   -0.4248    3.2883    0.8789 H   0  0  0  0  0  0  0  0  0  0  0  0
   -0.1939    1.3182   -0.0085 C   0  0  0  0  0  0  0  0  0  0  0  0
    1.0574    0.8011    0.0000 C   0  0  0  0  0  0  0  0  0  0  0  0
    1.9108    1.3129    0.0025 H   0  0  0  0  0  0  0  0  0  0  0  0
    0.9278   -0.5666    0.0053 N   0  0  0  0  0  4  0  0  0  0  0  0
    1.6842   -1.2232    0.0096 H   0  0  0  0  0  0  0  0  0  0  0  0
   -0.3580   -0.8762    0.0023 C   0  0  0  0  0  0  0  0  0  0  0  0
   -0.7338   -1.7985    0.0031 H   0  0  0  0  0  0  0  0  0  0  0  0
   -1.0574    0.2458    0.0000 N   0  0  0  0  0  0  0  0  0  0  0  0
   -2.0550    0.3077    0.0029 H   0  0  0  0  0  0  0  0  0  0  0  0
    4.6702   -2.0349   -1.8280 C   0  0  0  0  0  0  0  0  0  0  0  0
    4.6695   -2.6203   -2.6345 H   0  0  0  0  0  0  0  0  0  0  0  0
    4.3170   -1.0532   -2.1438 H   0  0  0  0  0  0  0  0  0  0  0  0
    5.6479   -1.9458   -1.3544 H   0  0  0  0  0  0  0  0  0  0  0  0
    3.6499   -2.6138   -0.8604 C   0  0  0  0  0  0  0  0  0  0  0  0
    2.9061   -1.8623   -0.2274 O   0  0  0  0  0  0  0  0  0  0  0  0
    3.5813   -3.9505   -0.7589 N   0  0  0  0  0  0  0  0  0  0  0  0
    2.5590   -4.5301    0.1166 C   0  0  0  0  0  0  0  0  0  0  0  0
    1.6283   -4.3180   -0.2384 H   0  0  0  0  0  0  0  0  0  0  0  0
    2.6541   -4.2184    1.1568 H   0  0  0  0  0  0  0  0  0  0  0  0
    2.8262   -6.0323    0.0206 C   0  0  0  0  0  0  0  0  0  0  0  0
    3.4319   -6.3358    0.7588 H   0  0  0  0  0  0  0  0  0  0  0  0
    1.9713   -6.5505    0.0620 H   0  0  0  0  0  0  0  0  0  0  0  0
    3.4921   -6.2112   -1.3184 C   0  0  0  0  0  0  0  0  0  0  0  0
    4.0568   -7.0389   -1.3159 H   0  0  0  0  0  0  0  0  0  0  0  0
    2.8005   -6.2868   -2.0402 H   0  0  0  0  0  0  0  0  0  0  0  0
    4.3319   -4.9824   -1.4978 C   0  0  0  0  0  0  0  0  0  0  0  0
    5.2443   -5.0985   -1.1056 H   0  0  0  0  0  0  0  0  0  0  0  0
    4.4155   -4.7302   -2.4628 H   0  0  0  0  0  0  0  0  0  0  0  0
  1  5  1  0
  5  6  2  0
  6  8  1  0
  8 10  2  0
 10 12  1  0
 12  5  1  0
  1  2  1  0
  1  3  1  0
  1  4  1  0
  6  7  1  0
  8  9  1  0
 10 11  1  0
 12 13  1  0
 14 18  1  0
 18 19  2  0
 18 20  1  0
 20 21  1  0
 21 24  1  0
 24 27  1  0
 27 30  1  0
 30 20  1  0
 14 15  1  0
 14 16  1  0
 14 17  1  0
 21 22  1  0
 21 23  1  0
 24 25  1  0
 24 26  1  0
 27 28  1  0
 27 29  1  0
 30 31  1  0
 30 32  1  0
M  CHG  1   8   1
M  END
>  <PDB_ID>  (102) 
pdb4kbx

>  <RESIDUE_NAME>  (102) 
HIP   PRO

>  <FRAG_NAME>  (102) 
MIMM   N1PA

>  <FRAG_ATOM_NUM>  (102) 
fragi: 13  fragj: 19

>  <atom.prop.CHAIN_ID>  (102) 
A A A A A A A A A A A A A Z Z Z Z Z Z Z Z Z Z Z Z Z Z Z Z Z Z Z

>  <atom.prop.IS_HEAVY_ATOM>  (102) 
1 0 0 0 1 1 0 1 0 1 0 1 0 1 0 0 0 1 1 1 1 0 0 1 0 0 1 0 0 1 0 0

>  <DIFUSE_FUNC_ATOM>  (102) 
n/a

>  <FINAL_SINGLE_POINT_ENERGY>  (102) 
0

>  <NONCOV_INTER_ENERGY_QM>  (102) 
0

>  <FF_Energy>  (102) 
-11.15

>  <QM_Energy>  (102) 
-21.99

>  <Index>  (102) 
629

$$$$
MIMM-pdb4kto-C-HIP-271:N1PA-pdb4kto-C-PRO-268
     RDKit          3D

 32 32  0  0  0  0  0  0  0  0999 V2000
   -0.6674    2.7359   -0.0169 C   0  0  0  0  0  0  0  0  0  0  0  0
   -1.6236    2.7496   -0.3305 H   0  0  0  0  0  0  0  0  0  0  0  0
   -0.1087    3.2533   -0.6751 H   0  0  0  0  0  0  0  0  0  0  0  0
   -0.6068    3.2224    0.9567 H   0  0  0  0  0  0  0  0  0  0  0  0
   -0.1947    1.3189   -0.0097 C   0  0  0  0  0  0  0  0  0  0  0  0
    1.0557    0.8002    0.0000 C   0  0  0  0  0  0  0  0  0  0  0  0
    1.9093    1.3135    0.0075 H   0  0  0  0  0  0  0  0  0  0  0  0
    0.9267   -0.5647   -0.0015 N   0  0  0  0  0  4  0  0  0  0  0  0
    1.6833   -1.2224   -0.0066 H   0  0  0  0  0  0  0  0  0  0  0  0
   -0.3576   -0.8755    0.0041 C   0  0  0  0  0  0  0  0  0  0  0  0
   -0.7319   -1.7980    0.0112 H   0  0  0  0  0  0  0  0  0  0  0  0
   -1.0557    0.2436   -0.0000 N   0  0  0  0  0  0  0  0  0  0  0  0
   -2.0543    0.3058    0.0020 H   0  0  0  0  0  0  0  0  0  0  0  0
   -5.7005   -0.5145    0.9337 C   0  0  0  0  0  0  0  0  0  0  0  0
   -5.1760   -0.8327    1.7498 H   0  0  0  0  0  0  0  0  0  0  0  0
   -6.7324   -0.3452    1.2411 H   0  0  0  0  0  0  0  0  0  0  0  0
   -5.5840   -1.3894    0.2941 H   0  0  0  0  0  0  0  0  0  0  0  0
   -4.9705    0.7308    0.3774 C   0  0  0  0  0  0  0  0  0  0  0  0
   -3.8503    1.0251    0.8080 O   0  0  0  0  0  0  0  0  0  0  0  0
   -5.5932    1.4660   -0.5632 N   0  0  0  0  0  0  0  0  0  0  0  0
   -4.9134    2.6731   -1.0450 C   0  0  0  0  0  0  0  0  0  0  0  0
   -4.0251    2.4385   -1.4579 H   0  0  0  0  0  0  0  0  0  0  0  0
   -4.7913    3.3999   -0.2420 H   0  0  0  0  0  0  0  0  0  0  0  0
   -5.8709    3.2169   -2.1124 C   0  0  0  0  0  0  0  0  0  0  0  0
   -6.4952    3.8922   -1.7082 H   0  0  0  0  0  0  0  0  0  0  0  0
   -5.3540    3.6551   -2.8525 H   0  0  0  0  0  0  0  0  0  0  0  0
   -6.5956    2.0256   -2.5872 C   0  0  0  0  0  0  0  0  0  0  0  0
   -7.4844    2.2783   -2.9880 H   0  0  0  0  0  0  0  0  0  0  0  0
   -6.0630    1.5336   -3.2866 H   0  0  0  0  0  0  0  0  0  0  0  0
   -6.7899    1.1667   -1.3693 C   0  0  0  0  0  0  0  0  0  0  0  0
   -7.6185    1.4168   -0.8721 H   0  0  0  0  0  0  0  0  0  0  0  0
   -6.8202    0.1957   -1.6054 H   0  0  0  0  0  0  0  0  0  0  0  0
  1  5  1  0
  5  6  2  0
  6  8  1  0
  8 10  2  0
 10 12  1  0
 12  5  1  0
  1  2  1  0
  1  3  1  0
  1  4  1  0
  6  7  1  0
  8  9  1  0
 10 11  1  0
 12 13  1  0
 14 18  1  0
 18 19  2  0
 18 20  1  0
 20 21  1  0
 21 24  1  0
 24 27  1  0
 27 30  1  0
 30 20  1  0
 14 15  1  0
 14 16  1  0
 14 17  1  0
 21 22  1  0
 21 23  1  0
 24 25  1  0
 24 26  1  0
 27 28  1  0
 27 29  1  0
 30 31  1  0
 30 32  1  0
M  CHG  1   8   1
M  END
>  <PDB_ID>  (103) 
pdb4kto

>  <RESIDUE_NAME>  (103) 
HIP   PRO

>  <FRAG_NAME>  (103) 
MIMM   N1PA

>  <FRAG_ATOM_NUM>  (103) 
fragi: 13  fragj: 19

>  <atom.prop.CHAIN_ID>  (103) 
A A A A A A A A A A A A A Z Z Z Z Z Z Z Z Z Z Z Z Z Z Z Z Z Z Z

>  <atom.prop.IS_HEAVY_ATOM>  (103) 
1 0 0 0 1 1 0 1 0 1 0 1 0 1 0 0 0 1 1 1 1 0 0 1 0 0 1 0 0 1 0 0

>  <DIFUSE_FUNC_ATOM>  (103) 
n/a

>  <FINAL_SINGLE_POINT_ENERGY>  (103) 
0

>  <NONCOV_INTER_ENERGY_QM>  (103) 
0

>  <FF_Energy>  (103) 
-14.23

>  <QM_Energy>  (103) 
-21.0

>  <Index>  (103) 
638

$$$$
MIMM-pdb3nol-A-HIP-39:N1PA-pdb3nol-A-PRO-247
     RDKit          3D

 32 32  0  0  0  0  0  0  0  0999 V2000
   -0.6982    2.7423   -0.0066 C   0  0  0  0  0  0  0  0  0  0  0  0
   -0.2060    3.2439    0.7141 H   0  0  0  0  0  0  0  0  0  0  0  0
   -1.6778    2.7316    0.2254 H   0  0  0  0  0  0  0  0  0  0  0  0
   -0.5651    3.2640   -0.9543 H   0  0  0  0  0  0  0  0  0  0  0  0
   -0.2028    1.3213   -0.0119 C   0  0  0  0  0  0  0  0  0  0  0  0
    1.0562    0.8042   -0.0000 C   0  0  0  0  0  0  0  0  0  0  0  0
    1.9063    1.3203    0.0051 H   0  0  0  0  0  0  0  0  0  0  0  0
    0.9332   -0.5688    0.0044 N   0  0  0  0  0  4  0  0  0  0  0  0
    1.6903   -1.2204    0.0060 H   0  0  0  0  0  0  0  0  0  0  0  0
   -0.3552   -0.8820    0.0039 C   0  0  0  0  0  0  0  0  0  0  0  0
   -0.7304   -1.8017    0.0075 H   0  0  0  0  0  0  0  0  0  0  0  0
   -1.0562    0.2450   -0.0000 N   0  0  0  0  0  0  0  0  0  0  0  0
   -2.0573    0.2989    0.0043 H   0  0  0  0  0  0  0  0  0  0  0  0
   -5.0340    0.0547    1.4622 C   0  0  0  0  0  0  0  0  0  0  0  0
   -6.0295    0.0960    1.5576 H   0  0  0  0  0  0  0  0  0  0  0  0
   -4.7774   -0.8912    0.9851 H   0  0  0  0  0  0  0  0  0  0  0  0
   -4.5616    0.1245    2.4420 H   0  0  0  0  0  0  0  0  0  0  0  0
   -4.6154    1.2227    0.5567 C   0  0  0  0  0  0  0  0  0  0  0  0
   -3.5511    1.1737   -0.0751 O   0  0  0  0  0  0  0  0  0  0  0  0
   -5.4634    2.2655    0.4620 N   0  0  0  0  0  0  0  0  0  0  0  0
   -5.1551    3.4132   -0.4186 C   0  0  0  0  0  0  0  0  0  0  0  0
   -4.8583    3.0766   -1.3379 H   0  0  0  0  0  0  0  0  0  0  0  0
   -4.4263    4.1177   -0.0178 H   0  0  0  0  0  0  0  0  0  0  0  0
   -6.5164    4.1207   -0.5551 C   0  0  0  0  0  0  0  0  0  0  0  0
   -6.4004    5.0986   -0.6738 H   0  0  0  0  0  0  0  0  0  0  0  0
   -7.0460    3.7365   -1.2990 H   0  0  0  0  0  0  0  0  0  0  0  0
   -7.1973    3.8278    0.7864 C   0  0  0  0  0  0  0  0  0  0  0  0
   -6.8746    4.4704    1.4756 H   0  0  0  0  0  0  0  0  0  0  0  0
   -8.1849    3.9020    0.6857 H   0  0  0  0  0  0  0  0  0  0  0  0
   -6.7844    2.4088    1.1223 C   0  0  0  0  0  0  0  0  0  0  0  0
   -6.6966    2.2799    2.1083 H   0  0  0  0  0  0  0  0  0  0  0  0
   -7.4330    1.7436    0.7533 H   0  0  0  0  0  0  0  0  0  0  0  0
  1  5  1  0
  5  6  2  0
  6  8  1  0
  8 10  2  0
 10 12  1  0
 12  5  1  0
  1  2  1  0
  1  3  1  0
  1  4  1  0
  6  7  1  0
  8  9  1  0
 10 11  1  0
 12 13  1  0
 14 18  1  0
 18 19  2  0
 18 20  1  0
 20 21  1  0
 21 24  1  0
 24 27  1  0
 27 30  1  0
 30 20  1  0
 14 15  1  0
 14 16  1  0
 14 17  1  0
 21 22  1  0
 21 23  1  0
 24 25  1  0
 24 26  1  0
 27 28  1  0
 27 29  1  0
 30 31  1  0
 30 32  1  0
M  CHG  1   8   1
M  END
>  <PDB_ID>  (104) 
pdb3nol

>  <RESIDUE_NAME>  (104) 
HIP   PRO

>  <FRAG_NAME>  (104) 
MIMM   N1PA

>  <FRAG_ATOM_NUM>  (104) 
fragi: 13  fragj: 19

>  <atom.prop.CHAIN_ID>  (104) 
A A A A A A A A A A A A A Z Z Z Z Z Z Z Z Z Z Z Z Z Z Z Z Z Z Z

>  <atom.prop.IS_HEAVY_ATOM>  (104) 
1 0 0 0 1 1 0 1 0 1 0 1 0 1 0 0 0 1 1 1 1 0 0 1 0 0 1 0 0 1 0 0

>  <DIFUSE_FUNC_ATOM>  (104) 
n/a

>  <FINAL_SINGLE_POINT_ENERGY>  (104) 
0

>  <NONCOV_INTER_ENERGY_QM>  (104) 
0

>  <FF_Energy>  (104) 
-16.47

>  <QM_Energy>  (104) 
-27.61

>  <Index>  (104) 
639

$$$$
MIMM-pdb4l0c-A-HIP-238:N1PA-pdb4l0c-A-PRO-119
     RDKit          3D

 32 32  0  0  0  0  0  0  0  0999 V2000
   -0.6734    2.7490    0.0071 C   0  0  0  0  0  0  0  0  0  0  0  0
   -1.3079    2.8760   -0.7618 H   0  0  0  0  0  0  0  0  0  0  0  0
    0.1292    3.3362   -0.1385 H   0  0  0  0  0  0  0  0  0  0  0  0
   -1.1678    3.0421    0.9332 H   0  0  0  0  0  0  0  0  0  0  0  0
   -0.2113    1.3165   -0.0004 C   0  0  0  0  0  0  0  0  0  0  0  0
    1.0735    0.7835   -0.0000 C   0  0  0  0  0  0  0  0  0  0  0  0
    1.9102    1.3181    0.0091 H   0  0  0  0  0  0  0  0  0  0  0  0
    0.9493   -0.5669   -0.0122 N   0  0  0  0  0  4  0  0  0  0  0  0
    1.6851   -1.2393   -0.0295 H   0  0  0  0  0  0  0  0  0  0  0  0
   -0.3699   -0.8834    0.0020 C   0  0  0  0  0  0  0  0  0  0  0  0
   -0.7381   -1.7944    0.0127 H   0  0  0  0  0  0  0  0  0  0  0  0
   -1.0735    0.2613    0.0000 N   0  0  0  0  0  0  0  0  0  0  0  0
   -2.0695    0.3111   -0.0012 H   0  0  0  0  0  0  0  0  0  0  0  0
   -4.6621   -2.5487    1.6114 C   0  0  0  0  0  0  0  0  0  0  0  0
   -5.5627   -2.3911    1.1619 H   0  0  0  0  0  0  0  0  0  0  0  0
   -4.8688   -2.9556    2.6013 H   0  0  0  0  0  0  0  0  0  0  0  0
   -4.1785   -1.5756    1.6971 H   0  0  0  0  0  0  0  0  0  0  0  0
   -3.8618   -3.4818    0.6806 C   0  0  0  0  0  0  0  0  0  0  0  0
   -2.8494   -3.0780    0.1038 O   0  0  0  0  0  0  0  0  0  0  0  0
   -4.3339   -4.7321    0.4786 N   0  0  0  0  0  0  0  0  0  0  0  0
   -3.6380   -5.6060   -0.4705 C   0  0  0  0  0  0  0  0  0  0  0  0
   -2.6774   -5.7344   -0.2031 H   0  0  0  0  0  0  0  0  0  0  0  0
   -3.7027   -5.2123   -1.4849 H   0  0  0  0  0  0  0  0  0  0  0  0
   -4.4589   -6.9028   -0.4091 C   0  0  0  0  0  0  0  0  0  0  0  0
   -4.5182   -7.3283   -1.3131 H   0  0  0  0  0  0  0  0  0  0  0  0
   -4.0523   -7.5510    0.2350 H   0  0  0  0  0  0  0  0  0  0  0  0
   -5.8266   -6.4689    0.0643 C   0  0  0  0  0  0  0  0  0  0  0  0
   -6.3595   -6.1128   -0.6950 H   0  0  0  0  0  0  0  0  0  0  0  0
   -6.3006   -7.2291    0.4955 H   0  0  0  0  0  0  0  0  0  0  0  0
   -5.5196   -5.3796    1.0696 C   0  0  0  0  0  0  0  0  0  0  0  0
   -6.2728   -4.7342    1.1447 H   0  0  0  0  0  0  0  0  0  0  0  0
   -5.3036   -5.7619    1.9629 H   0  0  0  0  0  0  0  0  0  0  0  0
  1  5  1  0
  5  6  2  0
  6  8  1  0
  8 10  2  0
 10 12  1  0
 12  5  1  0
  1  2  1  0
  1  3  1  0
  1  4  1  0
  6  7  1  0
  8  9  1  0
 10 11  1  0
 12 13  1  0
 14 18  1  0
 18 19  2  0
 18 20  1  0
 20 21  1  0
 21 24  1  0
 24 27  1  0
 27 30  1  0
 30 20  1  0
 14 15  1  0
 14 16  1  0
 14 17  1  0
 21 22  1  0
 21 23  1  0
 24 25  1  0
 24 26  1  0
 27 28  1  0
 27 29  1  0
 30 31  1  0
 30 32  1  0
M  CHG  1   8   1
M  END
>  <PDB_ID>  (105) 
pdb4l0c

>  <RESIDUE_NAME>  (105) 
HIP   PRO

>  <FRAG_NAME>  (105) 
MIMM   N1PA

>  <FRAG_ATOM_NUM>  (105) 
fragi: 13  fragj: 19

>  <atom.prop.CHAIN_ID>  (105) 
A A A A A A A A A A A A A Z Z Z Z Z Z Z Z Z Z Z Z Z Z Z Z Z Z Z

>  <atom.prop.IS_HEAVY_ATOM>  (105) 
1 0 0 0 1 1 0 1 0 1 0 1 0 1 0 0 0 1 1 1 1 0 0 1 0 0 1 0 0 1 0 0

>  <DIFUSE_FUNC_ATOM>  (105) 
n/a

>  <FINAL_SINGLE_POINT_ENERGY>  (105) 
0

>  <NONCOV_INTER_ENERGY_QM>  (105) 
0

>  <FF_Energy>  (105) 
-10.46

>  <QM_Energy>  (105) 
-17.18

>  <Index>  (105) 
640

$$$$
MIMM-pdb4l0c-B-HIP-238:N1PA-pdb4l0c-B-PRO-119
     RDKit          3D

 32 32  0  0  0  0  0  0  0  0999 V2000
   -0.6762    2.7437    0.0171 C   0  0  0  0  0  0  0  0  0  0  0  0
   -1.3211    2.8693   -0.7429 H   0  0  0  0  0  0  0  0  0  0  0  0
    0.1219    3.3348   -0.1367 H   0  0  0  0  0  0  0  0  0  0  0  0
   -1.1604    3.0326    0.9499 H   0  0  0  0  0  0  0  0  0  0  0  0
   -0.2103    1.3171    0.0044 C   0  0  0  0  0  0  0  0  0  0  0  0
    1.0731    0.7801    0.0000 C   0  0  0  0  0  0  0  0  0  0  0  0
    1.9117    1.3145    0.0055 H   0  0  0  0  0  0  0  0  0  0  0  0
    0.9494   -0.5696   -0.0113 N   0  0  0  0  0  4  0  0  0  0  0  0
    1.6882   -1.2406   -0.0262 H   0  0  0  0  0  0  0  0  0  0  0  0
   -0.3653   -0.8872   -0.0005 C   0  0  0  0  0  0  0  0  0  0  0  0
   -0.7391   -1.7940    0.0069 H   0  0  0  0  0  0  0  0  0  0  0  0
   -1.0731    0.2664   -0.0000 N   0  0  0  0  0  0  0  0  0  0  0  0
   -2.0675    0.3117   -0.0034 H   0  0  0  0  0  0  0  0  0  0  0  0
   -4.7067   -2.4795    1.4844 C   0  0  0  0  0  0  0  0  0  0  0  0
   -5.5880   -2.2758    1.0166 H   0  0  0  0  0  0  0  0  0  0  0  0
   -4.9503   -2.8867    2.4657 H   0  0  0  0  0  0  0  0  0  0  0  0
   -4.1971   -1.5224    1.5960 H   0  0  0  0  0  0  0  0  0  0  0  0
   -3.9316   -3.4464    0.5562 C   0  0  0  0  0  0  0  0  0  0  0  0
   -2.8983   -3.0792    0.0036 O   0  0  0  0  0  0  0  0  0  0  0  0
   -4.4324   -4.6874    0.3593 N   0  0  0  0  0  0  0  0  0  0  0  0
   -3.7493   -5.5543   -0.6241 C   0  0  0  0  0  0  0  0  0  0  0  0
   -2.7950   -5.7174   -0.3443 H   0  0  0  0  0  0  0  0  0  0  0  0
   -3.7938   -5.1352   -1.6293 H   0  0  0  0  0  0  0  0  0  0  0  0
   -4.5931   -6.8390   -0.6097 C   0  0  0  0  0  0  0  0  0  0  0  0
   -4.6709   -7.2233   -1.5279 H   0  0  0  0  0  0  0  0  0  0  0  0
   -4.1993   -7.5160    0.0080 H   0  0  0  0  0  0  0  0  0  0  0  0
   -5.9478   -6.3836   -0.1073 C   0  0  0  0  0  0  0  0  0  0  0  0
   -6.4904   -6.0248   -0.8691 H   0  0  0  0  0  0  0  0  0  0  0  0
   -6.4338   -7.1555    0.3066 H   0  0  0  0  0  0  0  0  0  0  0  0
   -5.6490   -5.3203    0.9003 C   0  0  0  0  0  0  0  0  0  0  0  0
   -6.3892   -4.6525    0.9647 H   0  0  0  0  0  0  0  0  0  0  0  0
   -5.4678   -5.7069    1.8052 H   0  0  0  0  0  0  0  0  0  0  0  0
  1  5  1  0
  5  6  2  0
  6  8  1  0
  8 10  2  0
 10 12  1  0
 12  5  1  0
  1  2  1  0
  1  3  1  0
  1  4  1  0
  6  7  1  0
  8  9  1  0
 10 11  1  0
 12 13  1  0
 14 18  1  0
 18 19  2  0
 18 20  1  0
 20 21  1  0
 21 24  1  0
 24 27  1  0
 27 30  1  0
 30 20  1  0
 14 15  1  0
 14 16  1  0
 14 17  1  0
 21 22  1  0
 21 23  1  0
 24 25  1  0
 24 26  1  0
 27 28  1  0
 27 29  1  0
 30 31  1  0
 30 32  1  0
M  CHG  1   8   1
M  END
>  <PDB_ID>  (106) 
pdb4l0c

>  <RESIDUE_NAME>  (106) 
HIP   PRO

>  <FRAG_NAME>  (106) 
MIMM   N1PA

>  <FRAG_ATOM_NUM>  (106) 
fragi: 13  fragj: 19

>  <atom.prop.CHAIN_ID>  (106) 
A A A A A A A A A A A A A Z Z Z Z Z Z Z Z Z Z Z Z Z Z Z Z Z Z Z

>  <atom.prop.IS_HEAVY_ATOM>  (106) 
1 0 0 0 1 1 0 1 0 1 0 1 0 1 0 0 0 1 1 1 1 0 0 1 0 0 1 0 0 1 0 0

>  <DIFUSE_FUNC_ATOM>  (106) 
n/a

>  <FINAL_SINGLE_POINT_ENERGY>  (106) 
0

>  <NONCOV_INTER_ENERGY_QM>  (106) 
0

>  <FF_Energy>  (106) 
-10.3

>  <QM_Energy>  (106) 
-16.73

>  <Index>  (106) 
641

$$$$
MIMM-pdb4l0c-C-HIP-238:N1PA-pdb4l0c-C-PRO-119
     RDKit          3D

 32 32  0  0  0  0  0  0  0  0999 V2000
   -0.7000    2.7345    0.0153 C   0  0  0  0  0  0  0  0  0  0  0  0
   -1.2823    2.8738   -0.7916 H   0  0  0  0  0  0  0  0  0  0  0  0
    0.1004    3.3373   -0.0561 H   0  0  0  0  0  0  0  0  0  0  0  0
   -1.2626    2.9924    0.9126 H   0  0  0  0  0  0  0  0  0  0  0  0
   -0.2157    1.3114    0.0024 C   0  0  0  0  0  0  0  0  0  0  0  0
    1.0668    0.7848   -0.0000 C   0  0  0  0  0  0  0  0  0  0  0  0
    1.9038    1.3228    0.0060 H   0  0  0  0  0  0  0  0  0  0  0  0
    0.9494   -0.5648   -0.0101 N   0  0  0  0  0  4  0  0  0  0  0  0
    1.6901   -1.2335   -0.0242 H   0  0  0  0  0  0  0  0  0  0  0  0
   -0.3632   -0.8844    0.0002 C   0  0  0  0  0  0  0  0  0  0  0  0
   -0.7337   -1.7935    0.0077 H   0  0  0  0  0  0  0  0  0  0  0  0
   -1.0668    0.2621    0.0000 N   0  0  0  0  0  0  0  0  0  0  0  0
   -2.0667    0.3045   -0.0027 H   0  0  0  0  0  0  0  0  0  0  0  0
   -4.3796   -2.8598    1.8739 C   0  0  0  0  0  0  0  0  0  0  0  0
   -5.3015   -2.8012    1.4505 H   0  0  0  0  0  0  0  0  0  0  0  0
   -4.5083   -3.2543    2.8818 H   0  0  0  0  0  0  0  0  0  0  0  0
   -3.9618   -1.8537    1.9110 H   0  0  0  0  0  0  0  0  0  0  0  0
   -3.5353   -3.7669    0.9556 C   0  0  0  0  0  0  0  0  0  0  0  0
   -2.5609   -3.2999    0.3677 O   0  0  0  0  0  0  0  0  0  0  0  0
   -3.9181   -5.0535    0.8053 N   0  0  0  0  0  0  0  0  0  0  0  0
   -3.1720   -5.8792   -0.1699 C   0  0  0  0  0  0  0  0  0  0  0  0
   -2.1940   -5.9177    0.0790 H   0  0  0  0  0  0  0  0  0  0  0  0
   -3.2969   -5.5240   -1.1928 H   0  0  0  0  0  0  0  0  0  0  0  0
   -3.8172   -7.2671   -0.0297 C   0  0  0  0  0  0  0  0  0  0  0  0
   -3.8907   -7.7132   -0.9266 H   0  0  0  0  0  0  0  0  0  0  0  0
   -3.2696   -7.8506    0.5768 H   0  0  0  0  0  0  0  0  0  0  0  0
   -5.1747   -7.0138    0.5537 C   0  0  0  0  0  0  0  0  0  0  0  0
   -5.8400   -6.8248   -0.1752 H   0  0  0  0  0  0  0  0  0  0  0  0
   -5.4864   -7.8131    1.0761 H   0  0  0  0  0  0  0  0  0  0  0  0
   -5.0084   -5.8157    1.4528 C   0  0  0  0  0  0  0  0  0  0  0  0
   -5.8418   -5.2673    1.4905 H   0  0  0  0  0  0  0  0  0  0  0  0
   -4.7436   -6.0858    2.3781 H   0  0  0  0  0  0  0  0  0  0  0  0
  1  5  1  0
  5  6  2  0
  6  8  1  0
  8 10  2  0
 10 12  1  0
 12  5  1  0
  1  2  1  0
  1  3  1  0
  1  4  1  0
  6  7  1  0
  8  9  1  0
 10 11  1  0
 12 13  1  0
 14 18  1  0
 18 19  2  0
 18 20  1  0
 20 21  1  0
 21 24  1  0
 24 27  1  0
 27 30  1  0
 30 20  1  0
 14 15  1  0
 14 16  1  0
 14 17  1  0
 21 22  1  0
 21 23  1  0
 24 25  1  0
 24 26  1  0
 27 28  1  0
 27 29  1  0
 30 31  1  0
 30 32  1  0
M  CHG  1   8   1
M  END
>  <PDB_ID>  (107) 
pdb4l0c

>  <RESIDUE_NAME>  (107) 
HIP   PRO

>  <FRAG_NAME>  (107) 
MIMM   N1PA

>  <FRAG_ATOM_NUM>  (107) 
fragi: 13  fragj: 19

>  <atom.prop.CHAIN_ID>  (107) 
A A A A A A A A A A A A A Z Z Z Z Z Z Z Z Z Z Z Z Z Z Z Z Z Z Z

>  <atom.prop.IS_HEAVY_ATOM>  (107) 
1 0 0 0 1 1 0 1 0 1 0 1 0 1 0 0 0 1 1 1 1 0 0 1 0 0 1 0 0 1 0 0

>  <DIFUSE_FUNC_ATOM>  (107) 
n/a

>  <FINAL_SINGLE_POINT_ENERGY>  (107) 
0

>  <NONCOV_INTER_ENERGY_QM>  (107) 
0

>  <FF_Energy>  (107) 
-10.28

>  <QM_Energy>  (107) 
-17.16

>  <Index>  (107) 
643

$$$$
MIMM-pdb4l0c-D-HIP-238:N1PA-pdb4l0c-D-PRO-119
     RDKit          3D

 32 32  0  0  0  0  0  0  0  0999 V2000
   -0.6753    2.7357   -0.0086 C   0  0  0  0  0  0  0  0  0  0  0  0
   -1.2773    2.8765   -0.8027 H   0  0  0  0  0  0  0  0  0  0  0  0
    0.1310    3.3297   -0.1107 H   0  0  0  0  0  0  0  0  0  0  0  0
   -1.2101    3.0139    0.8996 H   0  0  0  0  0  0  0  0  0  0  0  0
   -0.2123    1.3119   -0.0200 C   0  0  0  0  0  0  0  0  0  0  0  0
    1.0699    0.7751    0.0000 C   0  0  0  0  0  0  0  0  0  0  0  0
    1.9083    1.3152    0.0015 H   0  0  0  0  0  0  0  0  0  0  0  0
    0.9490   -0.5659    0.0167 N   0  0  0  0  0  4  0  0  0  0  0  0
    1.6890   -1.2401    0.0332 H   0  0  0  0  0  0  0  0  0  0  0  0
   -0.3620   -0.8846    0.0056 C   0  0  0  0  0  0  0  0  0  0  0  0
   -0.7366   -1.7908    0.0033 H   0  0  0  0  0  0  0  0  0  0  0  0
   -1.0699    0.2696    0.0000 N   0  0  0  0  0  0  0  0  0  0  0  0
   -2.0661    0.3103    0.0089 H   0  0  0  0  0  0  0  0  0  0  0  0
   -4.5000   -2.6876    1.7702 C   0  0  0  0  0  0  0  0  0  0  0  0
   -5.4101   -2.5859    1.3228 H   0  0  0  0  0  0  0  0  0  0  0  0
   -4.6781   -3.0693    2.7756 H   0  0  0  0  0  0  0  0  0  0  0  0
   -4.0770   -1.6843    1.8194 H   0  0  0  0  0  0  0  0  0  0  0  0
   -3.6607   -3.6147    0.8448 C   0  0  0  0  0  0  0  0  0  0  0  0
   -2.6999   -3.1707    0.2260 O   0  0  0  0  0  0  0  0  0  0  0  0
   -4.0315   -4.9039    0.7402 N   0  0  0  0  0  0  0  0  0  0  0  0
   -3.3446   -5.7366   -0.2431 C   0  0  0  0  0  0  0  0  0  0  0  0
   -2.3636   -5.8300   -0.0151 H   0  0  0  0  0  0  0  0  0  0  0  0
   -3.4623   -5.3571   -1.2581 H   0  0  0  0  0  0  0  0  0  0  0  0
   -4.0835   -7.0748   -0.1334 C   0  0  0  0  0  0  0  0  0  0  0  0
   -4.1593   -7.5162   -1.0253 H   0  0  0  0  0  0  0  0  0  0  0  0
   -3.6271   -7.6851    0.5093 H   0  0  0  0  0  0  0  0  0  0  0  0
   -5.4611   -6.6935    0.3860 C   0  0  0  0  0  0  0  0  0  0  0  0
   -6.0283   -6.3739   -0.3675 H   0  0  0  0  0  0  0  0  0  0  0  0
   -5.8848   -7.4813    0.8241 H   0  0  0  0  0  0  0  0  0  0  0  0
   -5.1720   -5.6051    1.3619 C   0  0  0  0  0  0  0  0  0  0  0  0
   -5.9462   -4.9824    1.4667 H   0  0  0  0  0  0  0  0  0  0  0  0
   -4.9110   -5.9658    2.2575 H   0  0  0  0  0  0  0  0  0  0  0  0
  1  5  1  0
  5  6  2  0
  6  8  1  0
  8 10  2  0
 10 12  1  0
 12  5  1  0
  1  2  1  0
  1  3  1  0
  1  4  1  0
  6  7  1  0
  8  9  1  0
 10 11  1  0
 12 13  1  0
 14 18  1  0
 18 19  2  0
 18 20  1  0
 20 21  1  0
 21 24  1  0
 24 27  1  0
 27 30  1  0
 30 20  1  0
 14 15  1  0
 14 16  1  0
 14 17  1  0
 21 22  1  0
 21 23  1  0
 24 25  1  0
 24 26  1  0
 27 28  1  0
 27 29  1  0
 30 31  1  0
 30 32  1  0
M  CHG  1   8   1
M  END
>  <PDB_ID>  (108) 
pdb4l0c

>  <RESIDUE_NAME>  (108) 
HIP   PRO

>  <FRAG_NAME>  (108) 
MIMM   N1PA

>  <FRAG_ATOM_NUM>  (108) 
fragi: 13  fragj: 19

>  <atom.prop.CHAIN_ID>  (108) 
A A A A A A A A A A A A A Z Z Z Z Z Z Z Z Z Z Z Z Z Z Z Z Z Z Z

>  <atom.prop.IS_HEAVY_ATOM>  (108) 
1 0 0 0 1 1 0 1 0 1 0 1 0 1 0 0 0 1 1 1 1 0 0 1 0 0 1 0 0 1 0 0

>  <DIFUSE_FUNC_ATOM>  (108) 
n/a

>  <FINAL_SINGLE_POINT_ENERGY>  (108) 
0

>  <NONCOV_INTER_ENERGY_QM>  (108) 
0

>  <FF_Energy>  (108) 
-10.37

>  <QM_Energy>  (108) 
-17.22

>  <Index>  (108) 
644

$$$$
MIMM-pdb4l0c-E-HIP-238:N1PA-pdb4l0c-E-PRO-119
     RDKit          3D

 32 32  0  0  0  0  0  0  0  0999 V2000
   -0.7303    2.7238    0.0345 C   0  0  0  0  0  0  0  0  0  0  0  0
   -1.3518    2.8380   -0.7534 H   0  0  0  0  0  0  0  0  0  0  0  0
    0.0664    3.3282   -0.1084 H   0  0  0  0  0  0  0  0  0  0  0  0
   -1.2484    3.0256    0.9448 H   0  0  0  0  0  0  0  0  0  0  0  0
   -0.2387    1.3020    0.0353 C   0  0  0  0  0  0  0  0  0  0  0  0
    1.0563    0.7807   -0.0000 C   0  0  0  0  0  0  0  0  0  0  0  0
    1.8834    1.3370   -0.0075 H   0  0  0  0  0  0  0  0  0  0  0  0
    0.9543   -0.5571   -0.0193 N   0  0  0  0  0  4  0  0  0  0  0  0
    1.7053   -1.2205   -0.0369 H   0  0  0  0  0  0  0  0  0  0  0  0
   -0.3399   -0.8795   -0.0129 C   0  0  0  0  0  0  0  0  0  0  0  0
   -0.7156   -1.7910   -0.0161 H   0  0  0  0  0  0  0  0  0  0  0  0
   -1.0563    0.2653    0.0000 N   0  0  0  0  0  0  0  0  0  0  0  0
   -2.0637    0.2794   -0.0167 H   0  0  0  0  0  0  0  0  0  0  0  0
   -4.3374   -2.8848    1.7997 C   0  0  0  0  0  0  0  0  0  0  0  0
   -5.2339   -2.7771    1.3300 H   0  0  0  0  0  0  0  0  0  0  0  0
   -4.5444   -3.2714    2.7975 H   0  0  0  0  0  0  0  0  0  0  0  0
   -3.9003   -1.8884    1.8647 H   0  0  0  0  0  0  0  0  0  0  0  0
   -3.4822   -3.8180    0.9043 C   0  0  0  0  0  0  0  0  0  0  0  0
   -2.4803   -3.3710    0.3390 O   0  0  0  0  0  0  0  0  0  0  0  0
   -3.8700   -5.0988    0.7663 N   0  0  0  0  0  0  0  0  0  0  0  0
   -3.1413   -5.9411   -0.2021 C   0  0  0  0  0  0  0  0  0  0  0  0
   -2.1668   -5.9961    0.0390 H   0  0  0  0  0  0  0  0  0  0  0  0
   -3.2661   -5.5692   -1.2190 H   0  0  0  0  0  0  0  0  0  0  0  0
   -3.8271   -7.3042   -0.0858 C   0  0  0  0  0  0  0  0  0  0  0  0
   -3.9203   -7.7356   -0.9878 H   0  0  0  0  0  0  0  0  0  0  0  0
   -3.3065   -7.9173    0.5141 H   0  0  0  0  0  0  0  0  0  0  0  0
   -5.1857   -7.0147    0.5039 C   0  0  0  0  0  0  0  0  0  0  0  0
   -5.8474   -6.8287   -0.2312 H   0  0  0  0  0  0  0  0  0  0  0  0
   -5.5077   -7.8096    1.0303 H   0  0  0  0  0  0  0  0  0  0  0  0
   -5.0019   -5.8180    1.3842 C   0  0  0  0  0  0  0  0  0  0  0  0
   -5.8188   -5.2373    1.3954 H   0  0  0  0  0  0  0  0  0  0  0  0
   -4.7745   -6.0807    2.3255 H   0  0  0  0  0  0  0  0  0  0  0  0
  1  5  1  0
  5  6  2  0
  6  8  1  0
  8 10  2  0
 10 12  1  0
 12  5  1  0
  1  2  1  0
  1  3  1  0
  1  4  1  0
  6  7  1  0
  8  9  1  0
 10 11  1  0
 12 13  1  0
 14 18  1  0
 18 19  2  0
 18 20  1  0
 20 21  1  0
 21 24  1  0
 24 27  1  0
 27 30  1  0
 30 20  1  0
 14 15  1  0
 14 16  1  0
 14 17  1  0
 21 22  1  0
 21 23  1  0
 24 25  1  0
 24 26  1  0
 27 28  1  0
 27 29  1  0
 30 31  1  0
 30 32  1  0
M  CHG  1   8   1
M  END
>  <PDB_ID>  (109) 
pdb4l0c

>  <RESIDUE_NAME>  (109) 
HIP   PRO

>  <FRAG_NAME>  (109) 
MIMM   N1PA

>  <FRAG_ATOM_NUM>  (109) 
fragi: 13  fragj: 19

>  <atom.prop.CHAIN_ID>  (109) 
A A A A A A A A A A A A A Z Z Z Z Z Z Z Z Z Z Z Z Z Z Z Z Z Z Z

>  <atom.prop.IS_HEAVY_ATOM>  (109) 
1 0 0 0 1 1 0 1 0 1 0 1 0 1 0 0 0 1 1 1 1 0 0 1 0 0 1 0 0 1 0 0

>  <DIFUSE_FUNC_ATOM>  (109) 
n/a

>  <FINAL_SINGLE_POINT_ENERGY>  (109) 
0

>  <NONCOV_INTER_ENERGY_QM>  (109) 
0

>  <FF_Energy>  (109) 
-10.19

>  <QM_Energy>  (109) 
-17.05

>  <Index>  (109) 
645

$$$$
MIMM-pdb4l0c-F-HIP-238:N1PA-pdb4l0c-F-PRO-119
     RDKit          3D

 32 32  0  0  0  0  0  0  0  0999 V2000
   -0.7198    2.7354   -0.0000 C   0  0  0  0  0  0  0  0  0  0  0  0
   -1.3799    2.8331   -0.7560 H   0  0  0  0  0  0  0  0  0  0  0  0
    0.0686    3.3328   -0.1934 H   0  0  0  0  0  0  0  0  0  0  0  0
   -1.1894    3.0512    0.9315 H   0  0  0  0  0  0  0  0  0  0  0  0
   -0.2309    1.3120    0.0069 C   0  0  0  0  0  0  0  0  0  0  0  0
    1.0678    0.7875   -0.0000 C   0  0  0  0  0  0  0  0  0  0  0  0
    1.8958    1.3330   -0.0070 H   0  0  0  0  0  0  0  0  0  0  0  0
    0.9560   -0.5652    0.0064 N   0  0  0  0  0  4  0  0  0  0  0  0
    1.7005   -1.2285    0.0166 H   0  0  0  0  0  0  0  0  0  0  0  0
   -0.3541   -0.8887   -0.0049 C   0  0  0  0  0  0  0  0  0  0  0  0
   -0.7251   -1.7966   -0.0133 H   0  0  0  0  0  0  0  0  0  0  0  0
   -1.0678    0.2623   -0.0000 N   0  0  0  0  0  0  0  0  0  0  0  0
   -2.0701    0.2898   -0.0024 H   0  0  0  0  0  0  0  0  0  0  0  0
   -4.3149   -2.5391    2.1456 C   0  0  0  0  0  0  0  0  0  0  0  0
   -5.2591   -2.4312    1.7728 H   0  0  0  0  0  0  0  0  0  0  0  0
   -4.4147   -2.9029    3.1682 H   0  0  0  0  0  0  0  0  0  0  0  0
   -3.8623   -1.5475    2.1450 H   0  0  0  0  0  0  0  0  0  0  0  0
   -3.5646   -3.4833    1.1626 C   0  0  0  0  0  0  0  0  0  0  0  0
   -2.6273   -3.0416    0.4832 O   0  0  0  0  0  0  0  0  0  0  0  0
   -3.9956   -4.7583    1.0450 N   0  0  0  0  0  0  0  0  0  0  0  0
   -3.3523   -5.6307    0.0541 C   0  0  0  0  0  0  0  0  0  0  0  0
   -2.3629   -5.7053    0.2338 H   0  0  0  0  0  0  0  0  0  0  0  0
   -3.5324   -5.2852   -0.9639 H   0  0  0  0  0  0  0  0  0  0  0  0
   -4.0630   -6.9782    0.2548 C   0  0  0  0  0  0  0  0  0  0  0  0
   -4.2020   -7.4366   -0.6268 H   0  0  0  0  0  0  0  0  0  0  0  0
   -3.5206   -7.5763    0.8494 H   0  0  0  0  0  0  0  0  0  0  0  0
   -5.3683   -6.6289    0.8902 C   0  0  0  0  0  0  0  0  0  0  0  0
   -6.0367   -6.3603    0.1949 H   0  0  0  0  0  0  0  0  0  0  0  0
   -5.7253   -7.4071    1.4084 H   0  0  0  0  0  0  0  0  0  0  0  0
   -5.0381   -5.4846    1.7927 C   0  0  0  0  0  0  0  0  0  0  0  0
   -5.8305   -4.8938    1.9481 H   0  0  0  0  0  0  0  0  0  0  0  0
   -4.6808   -5.7982    2.6740 H   0  0  0  0  0  0  0  0  0  0  0  0
  1  5  1  0
  5  6  2  0
  6  8  1  0
  8 10  2  0
 10 12  1  0
 12  5  1  0
  1  2  1  0
  1  3  1  0
  1  4  1  0
  6  7  1  0
  8  9  1  0
 10 11  1  0
 12 13  1  0
 14 18  1  0
 18 19  2  0
 18 20  1  0
 20 21  1  0
 21 24  1  0
 24 27  1  0
 27 30  1  0
 30 20  1  0
 14 15  1  0
 14 16  1  0
 14 17  1  0
 21 22  1  0
 21 23  1  0
 24 25  1  0
 24 26  1  0
 27 28  1  0
 27 29  1  0
 30 31  1  0
 30 32  1  0
M  CHG  1   8   1
M  END
>  <PDB_ID>  (110) 
pdb4l0c

>  <RESIDUE_NAME>  (110) 
HIP   PRO

>  <FRAG_NAME>  (110) 
MIMM   N1PA

>  <FRAG_ATOM_NUM>  (110) 
fragi: 13  fragj: 19

>  <atom.prop.CHAIN_ID>  (110) 
A A A A A A A A A A A A A Z Z Z Z Z Z Z Z Z Z Z Z Z Z Z Z Z Z Z

>  <atom.prop.IS_HEAVY_ATOM>  (110) 
1 0 0 0 1 1 0 1 0 1 0 1 0 1 0 0 0 1 1 1 1 0 0 1 0 0 1 0 0 1 0 0

>  <DIFUSE_FUNC_ATOM>  (110) 
n/a

>  <FINAL_SINGLE_POINT_ENERGY>  (110) 
0

>  <NONCOV_INTER_ENERGY_QM>  (110) 
0

>  <FF_Energy>  (110) 
-10.61

>  <QM_Energy>  (110) 
-18.27

>  <Index>  (110) 
646

$$$$
MIMM-pdb4l0c-G-HIP-238:N1PA-pdb4l0c-G-PRO-119
     RDKit          3D

 32 32  0  0  0  0  0  0  0  0999 V2000
   -0.6948    2.7371   -0.0086 C   0  0  0  0  0  0  0  0  0  0  0  0
   -1.3344    2.8477   -0.7762 H   0  0  0  0  0  0  0  0  0  0  0  0
    0.1012    3.3299   -0.1665 H   0  0  0  0  0  0  0  0  0  0  0  0
   -1.1868    3.0298    0.9189 H   0  0  0  0  0  0  0  0  0  0  0  0
   -0.2165    1.3119   -0.0056 C   0  0  0  0  0  0  0  0  0  0  0  0
    1.0695    0.7796    0.0000 C   0  0  0  0  0  0  0  0  0  0  0  0
    1.9056    1.3190   -0.0061 H   0  0  0  0  0  0  0  0  0  0  0  0
    0.9510   -0.5687    0.0154 N   0  0  0  0  0  4  0  0  0  0  0  0
    1.6940   -1.2369    0.0349 H   0  0  0  0  0  0  0  0  0  0  0  0
   -0.3564   -0.8866   -0.0008 C   0  0  0  0  0  0  0  0  0  0  0  0
   -0.7345   -1.7924   -0.0098 H   0  0  0  0  0  0  0  0  0  0  0  0
   -1.0695    0.2697   -0.0000 N   0  0  0  0  0  0  0  0  0  0  0  0
   -2.0657    0.3045    0.0037 H   0  0  0  0  0  0  0  0  0  0  0  0
   -4.5024   -2.6477    1.8250 C   0  0  0  0  0  0  0  0  0  0  0  0
   -5.4379   -2.5623    1.4321 H   0  0  0  0  0  0  0  0  0  0  0  0
   -4.6215   -3.0096    2.8463 H   0  0  0  0  0  0  0  0  0  0  0  0
   -4.0249   -1.6680    1.8435 H   0  0  0  0  0  0  0  0  0  0  0  0
   -3.7168   -3.5901    0.8991 C   0  0  0  0  0  0  0  0  0  0  0  0
   -2.7452   -3.1739    0.2823 O   0  0  0  0  0  0  0  0  0  0  0  0
   -4.1396   -4.8596    0.7769 N   0  0  0  0  0  0  0  0  0  0  0  0
   -3.4663   -5.6871   -0.2239 C   0  0  0  0  0  0  0  0  0  0  0  0
   -2.4775   -5.7570   -0.0296 H   0  0  0  0  0  0  0  0  0  0  0  0
   -3.6251   -5.3172   -1.2369 H   0  0  0  0  0  0  0  0  0  0  0  0
   -4.1628   -7.0445   -0.0728 C   0  0  0  0  0  0  0  0  0  0  0  0
   -4.2479   -7.5031   -0.9574 H   0  0  0  0  0  0  0  0  0  0  0  0
   -3.6650   -7.6329    0.5625 H   0  0  0  0  0  0  0  0  0  0  0  0
   -5.5313   -6.7031    0.4804 C   0  0  0  0  0  0  0  0  0  0  0  0
   -6.1396   -6.4303   -0.2609 H   0  0  0  0  0  0  0  0  0  0  0  0
   -5.9113   -7.4914    0.9585 H   0  0  0  0  0  0  0  0  0  0  0  0
   -5.2650   -5.5684    1.4183 C   0  0  0  0  0  0  0  0  0  0  0  0
   -6.0555   -4.9619    1.4999 H   0  0  0  0  0  0  0  0  0  0  0  0
   -4.9992   -5.8926    2.3276 H   0  0  0  0  0  0  0  0  0  0  0  0
  1  5  1  0
  5  6  2  0
  6  8  1  0
  8 10  2  0
 10 12  1  0
 12  5  1  0
  1  2  1  0
  1  3  1  0
  1  4  1  0
  6  7  1  0
  8  9  1  0
 10 11  1  0
 12 13  1  0
 14 18  1  0
 18 19  2  0
 18 20  1  0
 20 21  1  0
 21 24  1  0
 24 27  1  0
 27 30  1  0
 30 20  1  0
 14 15  1  0
 14 16  1  0
 14 17  1  0
 21 22  1  0
 21 23  1  0
 24 25  1  0
 24 26  1  0
 27 28  1  0
 27 29  1  0
 30 31  1  0
 30 32  1  0
M  CHG  1   8   1
M  END
>  <PDB_ID>  (111) 
pdb4l0c

>  <RESIDUE_NAME>  (111) 
HIP   PRO

>  <FRAG_NAME>  (111) 
MIMM   N1PA

>  <FRAG_ATOM_NUM>  (111) 
fragi: 13  fragj: 19

>  <atom.prop.CHAIN_ID>  (111) 
A A A A A A A A A A A A A Z Z Z Z Z Z Z Z Z Z Z Z Z Z Z Z Z Z Z

>  <atom.prop.IS_HEAVY_ATOM>  (111) 
1 0 0 0 1 1 0 1 0 1 0 1 0 1 0 0 0 1 1 1 1 0 0 1 0 0 1 0 0 1 0 0

>  <DIFUSE_FUNC_ATOM>  (111) 
n/a

>  <FINAL_SINGLE_POINT_ENERGY>  (111) 
0

>  <NONCOV_INTER_ENERGY_QM>  (111) 
0

>  <FF_Energy>  (111) 
-10.34

>  <QM_Energy>  (111) 
-16.85

>  <Index>  (111) 
647

$$$$
MIMM-pdb4l0c-H-HIP-238:N1PA-pdb4l0c-H-PRO-119
     RDKit          3D

 32 32  0  0  0  0  0  0  0  0999 V2000
   -0.7142    2.7370   -0.0161 C   0  0  0  0  0  0  0  0  0  0  0  0
   -1.3731    2.8445   -0.7678 H   0  0  0  0  0  0  0  0  0  0  0  0
    0.0737    3.3363   -0.1919 H   0  0  0  0  0  0  0  0  0  0  0  0
   -1.1869    3.0317    0.9209 H   0  0  0  0  0  0  0  0  0  0  0  0
   -0.2271    1.3136   -0.0226 C   0  0  0  0  0  0  0  0  0  0  0  0
    1.0729    0.7845   -0.0000 C   0  0  0  0  0  0  0  0  0  0  0  0
    1.9004    1.3276    0.0234 H   0  0  0  0  0  0  0  0  0  0  0  0
    0.9556   -0.5661   -0.0151 N   0  0  0  0  0  4  0  0  0  0  0  0
    1.6966   -1.2336   -0.0432 H   0  0  0  0  0  0  0  0  0  0  0  0
   -0.3578   -0.8882    0.0123 C   0  0  0  0  0  0  0  0  0  0  0  0
   -0.7285   -1.7960    0.0377 H   0  0  0  0  0  0  0  0  0  0  0  0
   -1.0729    0.2640   -0.0000 N   0  0  0  0  0  0  0  0  0  0  0  0
   -2.0709    0.2956    0.0067 H   0  0  0  0  0  0  0  0  0  0  0  0
   -4.3824   -2.7977    1.7389 C   0  0  0  0  0  0  0  0  0  0  0  0
   -5.2797   -2.6727    1.2761 H   0  0  0  0  0  0  0  0  0  0  0  0
   -4.5885   -3.1720    2.7416 H   0  0  0  0  0  0  0  0  0  0  0  0
   -3.9261   -1.8100    1.8040 H   0  0  0  0  0  0  0  0  0  0  0  0
   -3.5545   -3.7594    0.8340 C   0  0  0  0  0  0  0  0  0  0  0  0
   -2.5594   -3.3504    0.2273 O   0  0  0  0  0  0  0  0  0  0  0  0
   -3.9671   -5.0358    0.7217 N   0  0  0  0  0  0  0  0  0  0  0  0
   -3.2944   -5.9165   -0.2630 C   0  0  0  0  0  0  0  0  0  0  0  0
   -2.3233   -6.0151   -0.0412 H   0  0  0  0  0  0  0  0  0  0  0  0
   -3.4237   -5.5295   -1.2738 H   0  0  0  0  0  0  0  0  0  0  0  0
   -4.0492   -7.2383   -0.1212 C   0  0  0  0  0  0  0  0  0  0  0  0
   -4.1520   -7.6914   -1.0074 H   0  0  0  0  0  0  0  0  0  0  0  0
   -3.5841   -7.8530    0.5154 H   0  0  0  0  0  0  0  0  0  0  0  0
   -5.4113   -6.8435    0.4286 C   0  0  0  0  0  0  0  0  0  0  0  0
   -6.0038   -6.5427   -0.3128 H   0  0  0  0  0  0  0  0  0  0  0  0
   -5.8222   -7.6153    0.9046 H   0  0  0  0  0  0  0  0  0  0  0  0
   -5.1048   -5.7135    1.3778 C   0  0  0  0  0  0  0  0  0  0  0  0
   -5.8776   -5.0905    1.4667 H   0  0  0  0  0  0  0  0  0  0  0  0
   -4.8377   -6.0534    2.2777 H   0  0  0  0  0  0  0  0  0  0  0  0
  1  5  1  0
  5  6  2  0
  6  8  1  0
  8 10  2  0
 10 12  1  0
 12  5  1  0
  1  2  1  0
  1  3  1  0
  1  4  1  0
  6  7  1  0
  8  9  1  0
 10 11  1  0
 12 13  1  0
 14 18  1  0
 18 19  2  0
 18 20  1  0
 20 21  1  0
 21 24  1  0
 24 27  1  0
 27 30  1  0
 30 20  1  0
 14 15  1  0
 14 16  1  0
 14 17  1  0
 21 22  1  0
 21 23  1  0
 24 25  1  0
 24 26  1  0
 27 28  1  0
 27 29  1  0
 30 31  1  0
 30 32  1  0
M  CHG  1   8   1
M  END
>  <PDB_ID>  (112) 
pdb4l0c

>  <RESIDUE_NAME>  (112) 
HIP   PRO

>  <FRAG_NAME>  (112) 
MIMM   N1PA

>  <FRAG_ATOM_NUM>  (112) 
fragi: 13  fragj: 19

>  <atom.prop.CHAIN_ID>  (112) 
A A A A A A A A A A A A A Z Z Z Z Z Z Z Z Z Z Z Z Z Z Z Z Z Z Z

>  <atom.prop.IS_HEAVY_ATOM>  (112) 
1 0 0 0 1 1 0 1 0 1 0 1 0 1 0 0 0 1 1 1 1 0 0 1 0 0 1 0 0 1 0 0

>  <DIFUSE_FUNC_ATOM>  (112) 
n/a

>  <FINAL_SINGLE_POINT_ENERGY>  (112) 
0

>  <NONCOV_INTER_ENERGY_QM>  (112) 
0

>  <FF_Energy>  (112) 
-10.02

>  <QM_Energy>  (112) 
-17.02

>  <Index>  (112) 
648

$$$$
MIMM-pdb4leu-A-HIP-245:N1PA-pdb4leu-A-PRO-242
     RDKit          3D

 32 32  0  0  0  0  0  0  0  0999 V2000
   -0.6861    2.7455   -0.0198 C   0  0  0  0  0  0  0  0  0  0  0  0
   -0.0035    3.3093    0.4576 H   0  0  0  0  0  0  0  0  0  0  0  0
   -1.5536    2.7948    0.4875 H   0  0  0  0  0  0  0  0  0  0  0  0
   -0.8387    3.1458   -1.0221 H   0  0  0  0  0  0  0  0  0  0  0  0
   -0.2128    1.3195   -0.0003 C   0  0  0  0  0  0  0  0  0  0  0  0
    1.0728    0.7889    0.0000 C   0  0  0  0  0  0  0  0  0  0  0  0
    1.9094    1.3213    0.0050 H   0  0  0  0  0  0  0  0  0  0  0  0
    0.9463   -0.5653   -0.0057 N   0  0  0  0  0  4  0  0  0  0  0  0
    1.6894   -1.2342   -0.0141 H   0  0  0  0  0  0  0  0  0  0  0  0
   -0.3659   -0.8884    0.0005 C   0  0  0  0  0  0  0  0  0  0  0  0
   -0.7334   -1.7994    0.0061 H   0  0  0  0  0  0  0  0  0  0  0  0
   -1.0728    0.2562   -0.0000 N   0  0  0  0  0  0  0  0  0  0  0  0
   -2.0689    0.3044   -0.0008 H   0  0  0  0  0  0  0  0  0  0  0  0
   -5.1283    4.7029    1.8211 C   0  0  0  0  0  0  0  0  0  0  0  0
   -6.1292    4.6410    1.7648 H   0  0  0  0  0  0  0  0  0  0  0  0
   -4.8818    4.8334    2.8749 H   0  0  0  0  0  0  0  0  0  0  0  0
   -4.7516    5.5389    1.2318 H   0  0  0  0  0  0  0  0  0  0  0  0
   -4.5702    3.3874    1.3006 C   0  0  0  0  0  0  0  0  0  0  0  0
   -3.6679    3.3880    0.4647 O   0  0  0  0  0  0  0  0  0  0  0  0
   -5.1165    2.2690    1.8071 N   0  0  0  0  0  0  0  0  0  0  0  0
   -4.6087    0.9391    1.4552 C   0  0  0  0  0  0  0  0  0  0  0  0
   -3.6847    0.7998    1.8272 H   0  0  0  0  0  0  0  0  0  0  0  0
   -4.6169    0.7964    0.3746 H   0  0  0  0  0  0  0  0  0  0  0  0
   -5.6136   -0.0121    2.1255 C   0  0  0  0  0  0  0  0  0  0  0  0
   -6.2823   -0.3473    1.4547 H   0  0  0  0  0  0  0  0  0  0  0  0
   -5.1388   -0.8007    2.5268 H   0  0  0  0  0  0  0  0  0  0  0  0
   -6.2872    0.8042    3.1882 C   0  0  0  0  0  0  0  0  0  0  0  0
   -7.2165    0.4576    3.3574 H   0  0  0  0  0  0  0  0  0  0  0  0
   -5.7668    0.7540    4.0475 H   0  0  0  0  0  0  0  0  0  0  0  0
   -6.3214    2.2044    2.6582 C   0  0  0  0  0  0  0  0  0  0  0  0
   -7.1414    2.3737    2.1134 H   0  0  0  0  0  0  0  0  0  0  0  0
   -6.2647    2.8807    3.3935 H   0  0  0  0  0  0  0  0  0  0  0  0
  1  5  1  0
  5  6  2  0
  6  8  1  0
  8 10  2  0
 10 12  1  0
 12  5  1  0
  1  2  1  0
  1  3  1  0
  1  4  1  0
  6  7  1  0
  8  9  1  0
 10 11  1  0
 12 13  1  0
 14 18  1  0
 18 19  2  0
 18 20  1  0
 20 21  1  0
 21 24  1  0
 24 27  1  0
 27 30  1  0
 30 20  1  0
 14 15  1  0
 14 16  1  0
 14 17  1  0
 21 22  1  0
 21 23  1  0
 24 25  1  0
 24 26  1  0
 27 28  1  0
 27 29  1  0
 30 31  1  0
 30 32  1  0
M  CHG  1   8   1
M  END
>  <PDB_ID>  (113) 
pdb4leu

>  <RESIDUE_NAME>  (113) 
HIP   PRO

>  <FRAG_NAME>  (113) 
MIMM   N1PA

>  <FRAG_ATOM_NUM>  (113) 
fragi: 13  fragj: 19

>  <atom.prop.CHAIN_ID>  (113) 
A A A A A A A A A A A A A Z Z Z Z Z Z Z Z Z Z Z Z Z Z Z Z Z Z Z

>  <atom.prop.IS_HEAVY_ATOM>  (113) 
1 0 0 0 1 1 0 1 0 1 0 1 0 1 0 0 0 1 1 1 1 0 0 1 0 0 1 0 0 1 0 0

>  <DIFUSE_FUNC_ATOM>  (113) 
n/a

>  <FINAL_SINGLE_POINT_ENERGY>  (113) 
0

>  <NONCOV_INTER_ENERGY_QM>  (113) 
0

>  <FF_Energy>  (113) 
-4.82

>  <QM_Energy>  (113) 
-11.81

>  <Index>  (113) 
649

$$$$
MIMM-pdb3nut-D-HIP-129:N1PA-pdb3nut-D-PRO-240
     RDKit          3D

 32 32  0  0  0  0  0  0  0  0999 V2000
   -0.6665    2.7413    0.0168 C   0  0  0  0  0  0  0  0  0  0  0  0
   -1.1980    2.8956   -0.8262 H   0  0  0  0  0  0  0  0  0  0  0  0
    0.1413    3.3449   -0.0093 H   0  0  0  0  0  0  0  0  0  0  0  0
   -1.2810    3.0169    0.8738 H   0  0  0  0  0  0  0  0  0  0  0  0
   -0.1927    1.3209    0.0216 C   0  0  0  0  0  0  0  0  0  0  0  0
    1.0597    0.8022   -0.0000 C   0  0  0  0  0  0  0  0  0  0  0  0
    1.9135    1.3124   -0.0043 H   0  0  0  0  0  0  0  0  0  0  0  0
    0.9275   -0.5674   -0.0135 N   0  0  0  0  0  4  0  0  0  0  0  0
    1.6836   -1.2240   -0.0264 H   0  0  0  0  0  0  0  0  0  0  0  0
   -0.3596   -0.8786   -0.0078 C   0  0  0  0  0  0  0  0  0  0  0  0
   -0.7348   -1.7999   -0.0081 H   0  0  0  0  0  0  0  0  0  0  0  0
   -1.0597    0.2442    0.0000 N   0  0  0  0  0  0  0  0  0  0  0  0
   -2.0556    0.3077   -0.0091 H   0  0  0  0  0  0  0  0  0  0  0  0
   -3.7340   -0.5732   -3.5937 C   0  0  0  0  0  0  0  0  0  0  0  0
   -3.3847   -0.6292   -4.5325 H   0  0  0  0  0  0  0  0  0  0  0  0
   -4.8126   -0.7293   -3.6050 H   0  0  0  0  0  0  0  0  0  0  0  0
   -3.5130    0.4235   -3.2119 H   0  0  0  0  0  0  0  0  0  0  0  0
   -3.0337   -1.6792   -2.7660 C   0  0  0  0  0  0  0  0  0  0  0  0
   -3.1513   -1.6855   -1.5530 O   0  0  0  0  0  0  0  0  0  0  0  0
   -2.3247   -2.6245   -3.4247 N   0  0  0  0  0  0  0  0  0  0  0  0
   -1.5986   -3.7000   -2.6916 C   0  0  0  0  0  0  0  0  0  0  0  0
   -2.2238   -4.1398   -2.0133 H   0  0  0  0  0  0  0  0  0  0  0  0
   -0.6733   -3.3900   -2.2061 H   0  0  0  0  0  0  0  0  0  0  0  0
   -1.2968   -4.7662   -3.7710 C   0  0  0  0  0  0  0  0  0  0  0  0
   -0.3266   -5.0412   -3.7296 H   0  0  0  0  0  0  0  0  0  0  0  0
   -1.8615   -5.5876   -3.6198 H   0  0  0  0  0  0  0  0  0  0  0  0
   -1.6156   -4.1368   -5.1022 C   0  0  0  0  0  0  0  0  0  0  0  0
   -0.7844   -4.1143   -5.6892 H   0  0  0  0  0  0  0  0  0  0  0  0
   -2.3076   -4.6944   -5.5989 H   0  0  0  0  0  0  0  0  0  0  0  0
   -2.1435   -2.7163   -4.8858 C   0  0  0  0  0  0  0  0  0  0  0  0
   -1.4821   -2.0394   -5.2058 H   0  0  0  0  0  0  0  0  0  0  0  0
   -3.0133   -2.5847   -5.3615 H   0  0  0  0  0  0  0  0  0  0  0  0
  1  5  1  0
  5  6  2  0
  6  8  1  0
  8 10  2  0
 10 12  1  0
 12  5  1  0
  1  2  1  0
  1  3  1  0
  1  4  1  0
  6  7  1  0
  8  9  1  0
 10 11  1  0
 12 13  1  0
 14 18  1  0
 18 19  2  0
 18 20  1  0
 20 21  1  0
 21 24  1  0
 24 27  1  0
 27 30  1  0
 30 20  1  0
 14 15  1  0
 14 16  1  0
 14 17  1  0
 21 22  1  0
 21 23  1  0
 24 25  1  0
 24 26  1  0
 27 28  1  0
 27 29  1  0
 30 31  1  0
 30 32  1  0
M  CHG  1   8   1
M  END
>  <PDB_ID>  (114) 
pdb3nut

>  <RESIDUE_NAME>  (114) 
HIP   PRO

>  <FRAG_NAME>  (114) 
MIMM   N1PA

>  <FRAG_ATOM_NUM>  (114) 
fragi: 13  fragj: 19

>  <atom.prop.CHAIN_ID>  (114) 
A A A A A A A A A A A A A Z Z Z Z Z Z Z Z Z Z Z Z Z Z Z Z Z Z Z

>  <atom.prop.IS_HEAVY_ATOM>  (114) 
1 0 0 0 1 1 0 1 0 1 0 1 0 1 0 0 0 1 1 1 1 0 0 1 0 0 1 0 0 1 0 0

>  <DIFUSE_FUNC_ATOM>  (114) 
n/a

>  <FINAL_SINGLE_POINT_ENERGY>  (114) 
0

>  <NONCOV_INTER_ENERGY_QM>  (114) 
0

>  <FF_Energy>  (114) 
-10.43

>  <QM_Energy>  (114) 
-15.94

>  <Index>  (114) 
650

$$$$
MIMM-pdb3o3m-B-HIP-184:N1PA-pdb3o3m-B-PRO-223
     RDKit          3D

 32 32  0  0  0  0  0  0  0  0999 V2000
   -0.6512    2.7352   -0.0000 C   0  0  0  0  0  0  0  0  0  0  0  0
   -1.3883    2.8061   -0.6263 H   0  0  0  0  0  0  0  0  0  0  0  0
    0.0890    3.2875   -0.2978 H   0  0  0  0  0  0  0  0  0  0  0  0
   -0.9838    3.0913    0.9750 H   0  0  0  0  0  0  0  0  0  0  0  0
   -0.1875    1.3102   -0.0003 C   0  0  0  0  0  0  0  0  0  0  0  0
    1.0587    0.7787    0.0000 C   0  0  0  0  0  0  0  0  0  0  0  0
    1.8603    1.2507    0.0005 H   0  0  0  0  0  0  0  0  0  0  0  0
    0.9172   -0.5874    0.0006 N   0  0  0  0  0  4  0  0  0  0  0  0
    1.5618   -1.1568    0.0009 H   0  0  0  0  0  0  0  0  0  0  0  0
   -0.3696   -0.8852    0.0005 C   0  0  0  0  0  0  0  0  0  0  0  0
   -0.7298   -1.7435   -0.0003 H   0  0  0  0  0  0  0  0  0  0  0  0
   -1.0587    0.2420    0.0000 N   0  0  0  0  0  0  0  0  0  0  0  0
   -1.9168    0.3001   -0.0002 H   0  0  0  0  0  0  0  0  0  0  0  0
    4.7035   -1.6999   -2.2089 C   0  0  0  0  0  0  0  0  0  0  0  0
    5.6819   -1.7624   -2.2133 H   0  0  0  0  0  0  0  0  0  0  0  0
    4.2941   -2.3324   -2.9966 H   0  0  0  0  0  0  0  0  0  0  0  0
    4.4234   -0.6596   -2.3747 H   0  0  0  0  0  0  0  0  0  0  0  0
    4.1686   -2.1729   -0.8626 C   0  0  0  0  0  0  0  0  0  0  0  0
    3.0979   -2.7771   -0.7963 O   0  0  0  0  0  0  0  0  0  0  0  0
    4.9162   -1.9070    0.2187 N   0  0  0  0  0  0  0  0  0  0  0  0
    4.4915   -2.3071    1.5644 C   0  0  0  0  0  0  0  0  0  0  0  0
    4.1834   -3.2378    1.5716 H   0  0  0  0  0  0  0  0  0  0  0  0
    3.7172   -1.6550    1.9684 H   0  0  0  0  0  0  0  0  0  0  0  0
    5.7770   -2.1779    2.3832 C   0  0  0  0  0  0  0  0  0  0  0  0
    5.5627   -1.9098    3.2904 H   0  0  0  0  0  0  0  0  0  0  0  0
    6.2582   -3.0206    2.3758 H   0  0  0  0  0  0  0  0  0  0  0  0
    6.5542   -1.1189    1.6887 C   0  0  0  0  0  0  0  0  0  0  0  0
    6.2750   -0.2473    2.0099 H   0  0  0  0  0  0  0  0  0  0  0  0
    7.5022   -1.2534    1.8500 H   0  0  0  0  0  0  0  0  0  0  0  0
    6.2429   -1.2668    0.2251 C   0  0  0  0  0  0  0  0  0  0  0  0
    6.2009   -0.3961   -0.2002 H   0  0  0  0  0  0  0  0  0  0  0  0
    6.8973   -1.8400   -0.2038 H   0  0  0  0  0  0  0  0  0  0  0  0
  1  5  1  0
  5  6  2  0
  6  8  1  0
  8 10  2  0
 10 12  1  0
 12  5  1  0
  1  2  1  0
  1  3  1  0
  1  4  1  0
  6  7  1  0
  8  9  1  0
 10 11  1  0
 12 13  1  0
 14 18  1  0
 18 19  2  0
 18 20  1  0
 20 21  1  0
 21 24  1  0
 24 27  1  0
 27 30  1  0
 30 20  1  0
 14 15  1  0
 14 16  1  0
 14 17  1  0
 21 22  1  0
 21 23  1  0
 24 25  1  0
 24 26  1  0
 27 28  1  0
 27 29  1  0
 30 31  1  0
 30 32  1  0
M  CHG  1   8   1
M  END
>  <PDB_ID>  (115) 
pdb3o3m

>  <RESIDUE_NAME>  (115) 
HIP   PRO

>  <FRAG_NAME>  (115) 
MIMM   N1PA

>  <FRAG_ATOM_NUM>  (115) 
fragi: 13  fragj: 19

>  <atom.prop.CHAIN_ID>  (115) 
A A A A A A A A A A A A A Z Z Z Z Z Z Z Z Z Z Z Z Z Z Z Z Z Z Z

>  <atom.prop.IS_HEAVY_ATOM>  (115) 
1 0 0 0 1 1 0 1 0 1 0 1 0 1 0 0 0 1 1 1 1 0 0 1 0 0 1 0 0 1 0 0

>  <DIFUSE_FUNC_ATOM>  (115) 
n/a

>  <FINAL_SINGLE_POINT_ENERGY>  (115) 
0

>  <NONCOV_INTER_ENERGY_QM>  (115) 
0

>  <FF_Energy>  (115) 
-9.57

>  <QM_Energy>  (115) 
-15.63

>  <Index>  (115) 
656

$$$$
MIMM-pdb3o3m-D-HIP-184:N1PA-pdb3o3m-D-PRO-223
     RDKit          3D

 32 32  0  0  0  0  0  0  0  0999 V2000
   -0.6527    2.7350   -0.0021 C   0  0  0  0  0  0  0  0  0  0  0  0
   -1.5095    2.7675   -0.4555 H   0  0  0  0  0  0  0  0  0  0  0  0
   -0.0001    3.2599   -0.4907 H   0  0  0  0  0  0  0  0  0  0  0  0
   -0.7678    3.1579    0.9959 H   0  0  0  0  0  0  0  0  0  0  0  0
   -0.1880    1.3105   -0.0036 C   0  0  0  0  0  0  0  0  0  0  0  0
    1.0584    0.7799   -0.0000 C   0  0  0  0  0  0  0  0  0  0  0  0
    1.8594    1.2514   -0.0006 H   0  0  0  0  0  0  0  0  0  0  0  0
    0.9169   -0.5876    0.0012 N   0  0  0  0  0  4  0  0  0  0  0  0
    1.5619   -1.1560    0.0021 H   0  0  0  0  0  0  0  0  0  0  0  0
   -0.3692   -0.8863    0.0023 C   0  0  0  0  0  0  0  0  0  0  0  0
   -0.7289   -1.7439    0.0024 H   0  0  0  0  0  0  0  0  0  0  0  0
   -1.0584    0.2411    0.0000 N   0  0  0  0  0  0  0  0  0  0  0  0
   -1.9170    0.2989   -0.0009 H   0  0  0  0  0  0  0  0  0  0  0  0
    4.2263   -1.9838   -2.4667 C   0  0  0  0  0  0  0  0  0  0  0  0
    5.1765   -2.0489   -2.6989 H   0  0  0  0  0  0  0  0  0  0  0  0
    3.6614   -2.7079   -3.0538 H   0  0  0  0  0  0  0  0  0  0  0  0
    3.8882   -0.9719   -2.6899 H   0  0  0  0  0  0  0  0  0  0  0  0
    4.0517   -2.2622   -0.9777 C   0  0  0  0  0  0  0  0  0  0  0  0
    3.0258   -2.8005   -0.5622 O   0  0  0  0  0  0  0  0  0  0  0  0
    5.0581   -1.8980   -0.1684 N   0  0  0  0  0  0  0  0  0  0  0  0
    4.9790   -2.0673    1.2878 C   0  0  0  0  0  0  0  0  0  0  0  0
    4.8123   -3.0029    1.5256 H   0  0  0  0  0  0  0  0  0  0  0  0
    4.2206   -1.4255    1.7364 H   0  0  0  0  0  0  0  0  0  0  0  0
    6.3706   -1.6394    1.7713 C   0  0  0  0  0  0  0  0  0  0  0  0
    6.3300   -0.7373    2.1239 H   0  0  0  0  0  0  0  0  0  0  0  0
    6.6833   -2.2584    2.4493 H   0  0  0  0  0  0  0  0  0  0  0  0
    7.2474   -1.6949    0.5634 C   0  0  0  0  0  0  0  0  0  0  0  0
    7.9579   -1.0395    0.6473 H   0  0  0  0  0  0  0  0  0  0  0  0
    7.6144   -2.5871    0.4690 H   0  0  0  0  0  0  0  0  0  0  0  0
    6.3643   -1.3655   -0.5898 C   0  0  0  0  0  0  0  0  0  0  0  0
    6.3143   -0.4048   -0.7164 H   0  0  0  0  0  0  0  0  0  0  0  0
    6.6713   -1.8165   -1.3923 H   0  0  0  0  0  0  0  0  0  0  0  0
  1  5  1  0
  5  6  2  0
  6  8  1  0
  8 10  2  0
 10 12  1  0
 12  5  1  0
  1  2  1  0
  1  3  1  0
  1  4  1  0
  6  7  1  0
  8  9  1  0
 10 11  1  0
 12 13  1  0
 14 18  1  0
 18 19  2  0
 18 20  1  0
 20 21  1  0
 21 24  1  0
 24 27  1  0
 27 30  1  0
 30 20  1  0
 14 15  1  0
 14 16  1  0
 14 17  1  0
 21 22  1  0
 21 23  1  0
 24 25  1  0
 24 26  1  0
 27 28  1  0
 27 29  1  0
 30 31  1  0
 30 32  1  0
M  CHG  1   8   1
M  END
>  <PDB_ID>  (116) 
pdb3o3m

>  <RESIDUE_NAME>  (116) 
HIP   PRO

>  <FRAG_NAME>  (116) 
MIMM   N1PA

>  <FRAG_ATOM_NUM>  (116) 
fragi: 13  fragj: 19

>  <atom.prop.CHAIN_ID>  (116) 
A A A A A A A A A A A A A Z Z Z Z Z Z Z Z Z Z Z Z Z Z Z Z Z Z Z

>  <atom.prop.IS_HEAVY_ATOM>  (116) 
1 0 0 0 1 1 0 1 0 1 0 1 0 1 0 0 0 1 1 1 1 0 0 1 0 0 1 0 0 1 0 0

>  <DIFUSE_FUNC_ATOM>  (116) 
n/a

>  <FINAL_SINGLE_POINT_ENERGY>  (116) 
0

>  <NONCOV_INTER_ENERGY_QM>  (116) 
0

>  <FF_Energy>  (116) 
-10.43

>  <QM_Energy>  (116) 
-17.03

>  <Index>  (116) 
659

$$$$
MIMM-pdb3ov6-A-HIP-105:N1PA-pdb3ov6-A-PRO-110
     RDKit          3D

 32 32  0  0  0  0  0  0  0  0999 V2000
   -0.6838    2.7450   -0.0103 C   0  0  0  0  0  0  0  0  0  0  0  0
   -1.4399    2.8164   -0.6663 H   0  0  0  0  0  0  0  0  0  0  0  0
    0.0690    3.3329   -0.3180 H   0  0  0  0  0  0  0  0  0  0  0  0
   -1.0245    3.0830    0.9684 H   0  0  0  0  0  0  0  0  0  0  0  0
   -0.1959    1.3222   -0.0114 C   0  0  0  0  0  0  0  0  0  0  0  0
    1.0566    0.8030   -0.0000 C   0  0  0  0  0  0  0  0  0  0  0  0
    1.9105    1.3141    0.0036 H   0  0  0  0  0  0  0  0  0  0  0  0
    0.9266   -0.5671    0.0069 N   0  0  0  0  0  4  0  0  0  0  0  0
    1.6857   -1.2210    0.0124 H   0  0  0  0  0  0  0  0  0  0  0  0
   -0.3552   -0.8795    0.0034 C   0  0  0  0  0  0  0  0  0  0  0  0
   -0.7307   -1.8009    0.0046 H   0  0  0  0  0  0  0  0  0  0  0  0
   -1.0566    0.2427   -0.0000 N   0  0  0  0  0  0  0  0  0  0  0  0
   -2.0543    0.3027    0.0040 H   0  0  0  0  0  0  0  0  0  0  0  0
   -5.6830    3.0116   -1.5390 C   0  0  0  0  0  0  0  0  0  0  0  0
   -6.6650    2.9334   -1.7387 H   0  0  0  0  0  0  0  0  0  0  0  0
   -5.5126    3.9544   -1.0191 H   0  0  0  0  0  0  0  0  0  0  0  0
   -5.1514    2.9788   -2.4900 H   0  0  0  0  0  0  0  0  0  0  0  0
   -5.2950    1.8309   -0.6482 C   0  0  0  0  0  0  0  0  0  0  0  0
   -4.1548    1.7472   -0.1830 O   0  0  0  0  0  0  0  0  0  0  0  0
   -6.2587    0.9275   -0.4051 N   0  0  0  0  0  0  0  0  0  0  0  0
   -6.0639   -0.2806    0.4007 C   0  0  0  0  0  0  0  0  0  0  0  0
   -5.3990   -0.1171    1.1338 H   0  0  0  0  0  0  0  0  0  0  0  0
   -5.7475   -1.1072   -0.2355 H   0  0  0  0  0  0  0  0  0  0  0  0
   -7.4629   -0.5530    0.9592 C   0  0  0  0  0  0  0  0  0  0  0  0
   -7.6276   -1.5407    1.0449 H   0  0  0  0  0  0  0  0  0  0  0  0
   -7.5772   -0.1282    1.8617 H   0  0  0  0  0  0  0  0  0  0  0  0
   -8.4216    0.0574   -0.0375 C   0  0  0  0  0  0  0  0  0  0  0  0
   -8.8360   -0.6669   -0.6106 H   0  0  0  0  0  0  0  0  0  0  0  0
   -9.1746    0.5288    0.4488 H   0  0  0  0  0  0  0  0  0  0  0  0
   -7.6444    1.0389   -0.8967 C   0  0  0  0  0  0  0  0  0  0  0  0
   -7.6964    0.7899   -1.8652 H   0  0  0  0  0  0  0  0  0  0  0  0
   -7.9875    1.9733   -0.7784 H   0  0  0  0  0  0  0  0  0  0  0  0
  1  5  1  0
  5  6  2  0
  6  8  1  0
  8 10  2  0
 10 12  1  0
 12  5  1  0
  1  2  1  0
  1  3  1  0
  1  4  1  0
  6  7  1  0
  8  9  1  0
 10 11  1  0
 12 13  1  0
 14 18  1  0
 18 19  2  0
 18 20  1  0
 20 21  1  0
 21 24  1  0
 24 27  1  0
 27 30  1  0
 30 20  1  0
 14 15  1  0
 14 16  1  0
 14 17  1  0
 21 22  1  0
 21 23  1  0
 24 25  1  0
 24 26  1  0
 27 28  1  0
 27 29  1  0
 30 31  1  0
 30 32  1  0
M  CHG  1   8   1
M  END
>  <PDB_ID>  (117) 
pdb3ov6

>  <RESIDUE_NAME>  (117) 
HIP   PRO

>  <FRAG_NAME>  (117) 
MIMM   N1PA

>  <FRAG_ATOM_NUM>  (117) 
fragi: 13  fragj: 19

>  <atom.prop.CHAIN_ID>  (117) 
A A A A A A A A A A A A A Z Z Z Z Z Z Z Z Z Z Z Z Z Z Z Z Z Z Z

>  <atom.prop.IS_HEAVY_ATOM>  (117) 
1 0 0 0 1 1 0 1 0 1 0 1 0 1 0 0 0 1 1 1 1 0 0 1 0 0 1 0 0 1 0 0

>  <DIFUSE_FUNC_ATOM>  (117) 
n/a

>  <FINAL_SINGLE_POINT_ENERGY>  (117) 
0

>  <NONCOV_INTER_ENERGY_QM>  (117) 
0

>  <FF_Energy>  (117) 
-12.56

>  <QM_Energy>  (117) 
-18.64

>  <Index>  (117) 
673

$$$$
MIMM-pdb4or9-A-HIP-164:N1PA-pdb4or9-A-PRO-494
     RDKit          3D

 32 32  0  0  0  0  0  0  0  0999 V2000
   -0.6692    2.7407    0.0078 C   0  0  0  0  0  0  0  0  0  0  0  0
   -0.7346    3.0543    0.9631 H   0  0  0  0  0  0  0  0  0  0  0  0
   -1.5931    2.7650   -0.3950 H   0  0  0  0  0  0  0  0  0  0  0  0
   -0.0268    3.4265   -0.5446 H   0  0  0  0  0  0  0  0  0  0  0  0
   -0.1947    1.3205    0.0093 C   0  0  0  0  0  0  0  0  0  0  0  0
    1.0554    0.8011   -0.0000 C   0  0  0  0  0  0  0  0  0  0  0  0
    1.9104    1.3138   -0.0016 H   0  0  0  0  0  0  0  0  0  0  0  0
    0.9272   -0.5663   -0.0056 N   0  0  0  0  0  4  0  0  0  0  0  0
    1.6846   -1.2224   -0.0109 H   0  0  0  0  0  0  0  0  0  0  0  0
   -0.3570   -0.8758   -0.0038 C   0  0  0  0  0  0  0  0  0  0  0  0
   -0.7326   -1.7986   -0.0036 H   0  0  0  0  0  0  0  0  0  0  0  0
   -1.0554    0.2434    0.0000 N   0  0  0  0  0  0  0  0  0  0  0  0
   -2.0542    0.3057   -0.0043 H   0  0  0  0  0  0  0  0  0  0  0  0
    0.7606   -3.2392   -2.8886 C   0  0  0  0  0  0  0  0  0  0  0  0
    1.1653   -3.8878   -3.5466 H   0  0  0  0  0  0  0  0  0  0  0  0
   -0.3230   -3.2028   -3.0009 H   0  0  0  0  0  0  0  0  0  0  0  0
    1.0616   -2.2151   -3.1093 H   0  0  0  0  0  0  0  0  0  0  0  0
    1.1610   -3.5985   -1.4606 C   0  0  0  0  0  0  0  0  0  0  0  0
    0.4302   -3.2635   -0.5284 O   0  0  0  0  0  0  0  0  0  0  0  0
    2.3104   -4.2709   -1.2931 N   0  0  0  0  0  0  0  0  0  0  0  0
    2.8105   -4.7292    0.0109 C   0  0  0  0  0  0  0  0  0  0  0  0
    2.2027   -5.4521    0.3888 H   0  0  0  0  0  0  0  0  0  0  0  0
    2.9401   -3.9248    0.7348 H   0  0  0  0  0  0  0  0  0  0  0  0
    4.1670   -5.3477   -0.3373 C   0  0  0  0  0  0  0  0  0  0  0  0
    4.9016   -4.6730   -0.2255 H   0  0  0  0  0  0  0  0  0  0  0  0
    4.3571   -6.1364    0.2516 H   0  0  0  0  0  0  0  0  0  0  0  0
    4.0318   -5.7616   -1.7625 C   0  0  0  0  0  0  0  0  0  0  0  0
    4.9353   -5.8094   -2.2032 H   0  0  0  0  0  0  0  0  0  0  0  0
    3.5965   -6.6660   -1.8262 H   0  0  0  0  0  0  0  0  0  0  0  0
    3.1792   -4.7088   -2.3989 C   0  0  0  0  0  0  0  0  0  0  0  0
    3.7272   -3.9433   -2.7366 H   0  0  0  0  0  0  0  0  0  0  0  0
    2.6298   -5.0803   -3.1491 H   0  0  0  0  0  0  0  0  0  0  0  0
  1  5  1  0
  5  6  2  0
  6  8  1  0
  8 10  2  0
 10 12  1  0
 12  5  1  0
  1  2  1  0
  1  3  1  0
  1  4  1  0
  6  7  1  0
  8  9  1  0
 10 11  1  0
 12 13  1  0
 14 18  1  0
 18 19  2  0
 18 20  1  0
 20 21  1  0
 21 24  1  0
 24 27  1  0
 27 30  1  0
 30 20  1  0
 14 15  1  0
 14 16  1  0
 14 17  1  0
 21 22  1  0
 21 23  1  0
 24 25  1  0
 24 26  1  0
 27 28  1  0
 27 29  1  0
 30 31  1  0
 30 32  1  0
M  CHG  1   8   1
M  END
>  <PDB_ID>  (118) 
pdb4or9

>  <RESIDUE_NAME>  (118) 
HIP   PRO

>  <FRAG_NAME>  (118) 
MIMM   N1PA

>  <FRAG_ATOM_NUM>  (118) 
fragi: 13  fragj: 19

>  <atom.prop.CHAIN_ID>  (118) 
A A A A A A A A A A A A A Z Z Z Z Z Z Z Z Z Z Z Z Z Z Z Z Z Z Z

>  <atom.prop.IS_HEAVY_ATOM>  (118) 
1 0 0 0 1 1 0 1 0 1 0 1 0 1 0 0 0 1 1 1 1 0 0 1 0 0 1 0 0 1 0 0

>  <DIFUSE_FUNC_ATOM>  (118) 
n/a

>  <FINAL_SINGLE_POINT_ENERGY>  (118) 
0

>  <NONCOV_INTER_ENERGY_QM>  (118) 
0

>  <FF_Energy>  (118) 
7.56

>  <QM_Energy>  (118) 
-17.95

>  <Index>  (118) 
704

$$$$
MIMM-pdb3ry0-A-HIP-28:N1PA-pdb3ry0-A-PRO-34
     RDKit          3D

 32 32  0  0  0  0  0  0  0  0999 V2000
   -0.6408    2.7556   -0.0020 C   0  0  0  0  0  0  0  0  0  0  0  0
   -1.2360    2.9054   -0.8060 H   0  0  0  0  0  0  0  0  0  0  0  0
    0.1752    3.3430   -0.1108 H   0  0  0  0  0  0  0  0  0  0  0  0
   -1.1756    3.0464    0.9021 H   0  0  0  0  0  0  0  0  0  0  0  0
   -0.1798    1.3195   -0.0345 C   0  0  0  0  0  0  0  0  0  0  0  0
    1.0603    0.7864    0.0000 C   0  0  0  0  0  0  0  0  0  0  0  0
    1.9217    1.2971    0.0181 H   0  0  0  0  0  0  0  0  0  0  0  0
    0.9255   -0.5706    0.0076 N   0  0  0  0  0  4  0  0  0  0  0  0
    1.6762   -1.2359    0.0073 H   0  0  0  0  0  0  0  0  0  0  0  0
   -0.3636   -0.8769    0.0134 C   0  0  0  0  0  0  0  0  0  0  0  0
   -0.7458   -1.7921    0.0270 H   0  0  0  0  0  0  0  0  0  0  0  0
   -1.0603    0.2568   -0.0000 N   0  0  0  0  0  0  0  0  0  0  0  0
   -2.0518    0.3262    0.0118 H   0  0  0  0  0  0  0  0  0  0  0  0
   -5.6037    0.5550    1.7444 C   0  0  0  0  0  0  0  0  0  0  0  0
   -6.2459   -0.1766    1.9240 H   0  0  0  0  0  0  0  0  0  0  0  0
   -4.9127    0.6336    2.5837 H   0  0  0  0  0  0  0  0  0  0  0  0
   -6.1592    1.4849    1.6223 H   0  0  0  0  0  0  0  0  0  0  0  0
   -4.7736    0.1683    0.4984 C   0  0  0  0  0  0  0  0  0  0  0  0
   -3.7318    0.7495    0.1941 O   0  0  0  0  0  0  0  0  0  0  0  0
   -5.2224   -0.7885   -0.3240 N   0  0  0  0  0  0  0  0  0  0  0  0
   -4.5364   -1.0758   -1.5688 C   0  0  0  0  0  0  0  0  0  0  0  0
   -3.6086   -1.4475   -1.4006 H   0  0  0  0  0  0  0  0  0  0  0  0
   -4.4720   -0.2065   -2.2232 H   0  0  0  0  0  0  0  0  0  0  0  0
   -5.3851   -2.2255   -2.2053 C   0  0  0  0  0  0  0  0  0  0  0  0
   -6.0410   -1.8507   -2.8416 H   0  0  0  0  0  0  0  0  0  0  0  0
   -4.7933   -2.8844   -2.6403 H   0  0  0  0  0  0  0  0  0  0  0  0
   -6.0672   -2.8133   -0.9973 C   0  0  0  0  0  0  0  0  0  0  0  0
   -6.9118   -3.2893   -1.2739 H   0  0  0  0  0  0  0  0  0  0  0  0
   -5.4608   -3.4833   -0.5492 H   0  0  0  0  0  0  0  0  0  0  0  0
   -6.3729   -1.6632   -0.0782 C   0  0  0  0  0  0  0  0  0  0  0  0
   -7.2207   -1.2122   -0.3295 H   0  0  0  0  0  0  0  0  0  0  0  0
   -6.4009   -1.9536    0.8721 H   0  0  0  0  0  0  0  0  0  0  0  0
  1  5  1  0
  5  6  2  0
  6  8  1  0
  8 10  2  0
 10 12  1  0
 12  5  1  0
  1  2  1  0
  1  3  1  0
  1  4  1  0
  6  7  1  0
  8  9  1  0
 10 11  1  0
 12 13  1  0
 14 18  1  0
 18 19  2  0
 18 20  1  0
 20 21  1  0
 21 24  1  0
 24 27  1  0
 27 30  1  0
 30 20  1  0
 14 15  1  0
 14 16  1  0
 14 17  1  0
 21 22  1  0
 21 23  1  0
 24 25  1  0
 24 26  1  0
 27 28  1  0
 27 29  1  0
 30 31  1  0
 30 32  1  0
M  CHG  1   8   1
M  END
>  <PDB_ID>  (119) 
pdb3ry0

>  <RESIDUE_NAME>  (119) 
HIP   PRO

>  <FRAG_NAME>  (119) 
MIMM   N1PA

>  <FRAG_ATOM_NUM>  (119) 
fragi: 13  fragj: 19

>  <atom.prop.CHAIN_ID>  (119) 
A A A A A A A A A A A A A Z Z Z Z Z Z Z Z Z Z Z Z Z Z Z Z Z Z Z

>  <atom.prop.IS_HEAVY_ATOM>  (119) 
1 0 0 0 1 1 0 1 0 1 0 1 0 1 0 0 0 1 1 1 1 0 0 1 0 0 1 0 0 1 0 0

>  <DIFUSE_FUNC_ATOM>  (119) 
n/a

>  <FINAL_SINGLE_POINT_ENERGY>  (119) 
0

>  <NONCOV_INTER_ENERGY_QM>  (119) 
0

>  <FF_Energy>  (119) 
-17.18

>  <QM_Energy>  (119) 
-25.37

>  <Index>  (119) 
727

$$$$
MIMM-pdb3ry0-B-HIP-28:N1PA-pdb3ry0-B-PRO-34
     RDKit          3D

 32 32  0  0  0  0  0  0  0  0999 V2000
   -0.6462    2.7185    0.0754 C   0  0  0  0  0  0  0  0  0  0  0  0
   -1.2502    2.8440   -0.7221 H   0  0  0  0  0  0  0  0  0  0  0  0
    0.1608    3.3096   -0.0452 H   0  0  0  0  0  0  0  0  0  0  0  0
   -1.1774    3.0182    0.9788 H   0  0  0  0  0  0  0  0  0  0  0  0
   -0.1934    1.3077    0.1030 C   0  0  0  0  0  0  0  0  0  0  0  0
    1.0612    0.7975    0.0000 C   0  0  0  0  0  0  0  0  0  0  0  0
    1.9086    1.3144   -0.0168 H   0  0  0  0  0  0  0  0  0  0  0  0
    0.9226   -0.5573   -0.0737 N   0  0  0  0  0  4  0  0  0  0  0  0
    1.6798   -1.2180   -0.1480 H   0  0  0  0  0  0  0  0  0  0  0  0
   -0.3540   -0.8691   -0.0341 C   0  0  0  0  0  0  0  0  0  0  0  0
   -0.7292   -1.7943   -0.0293 H   0  0  0  0  0  0  0  0  0  0  0  0
   -1.0612    0.2463    0.0000 N   0  0  0  0  0  0  0  0  0  0  0  0
   -2.0534    0.3088   -0.0425 H   0  0  0  0  0  0  0  0  0  0  0  0
   -5.5860    1.0345    1.2967 C   0  0  0  0  0  0  0  0  0  0  0  0
   -6.3643    0.4510    1.4425 H   0  0  0  0  0  0  0  0  0  0  0  0
   -4.9622    0.9834    2.1891 H   0  0  0  0  0  0  0  0  0  0  0  0
   -5.7237    2.0865    1.0466 H   0  0  0  0  0  0  0  0  0  0  0  0
   -4.7327    0.4740    0.1941 C   0  0  0  0  0  0  0  0  0  0  0  0
   -3.6066    0.9116    0.0291 O   0  0  0  0  0  0  0  0  0  0  0  0
   -5.2672   -0.4318   -0.6371 N   0  0  0  0  0  0  0  0  0  0  0  0
   -4.5691   -0.8109   -1.8632 C   0  0  0  0  0  0  0  0  0  0  0  0
   -3.7284   -1.3261   -1.6603 H   0  0  0  0  0  0  0  0  0  0  0  0
   -4.3334    0.0601   -2.4747 H   0  0  0  0  0  0  0  0  0  0  0  0
   -5.5717   -1.8204   -2.5503 C   0  0  0  0  0  0  0  0  0  0  0  0
   -6.1174   -1.3386   -3.2174 H   0  0  0  0  0  0  0  0  0  0  0  0
   -5.0642   -2.5599   -2.9609 H   0  0  0  0  0  0  0  0  0  0  0  0
   -6.3881   -2.2802   -1.3892 C   0  0  0  0  0  0  0  0  0  0  0  0
   -7.2857   -2.6323   -1.7104 H   0  0  0  0  0  0  0  0  0  0  0  0
   -5.9207   -3.0486   -0.9160 H   0  0  0  0  0  0  0  0  0  0  0  0
   -6.5644   -1.1176   -0.4779 C   0  0  0  0  0  0  0  0  0  0  0  0
   -7.3067   -0.5252   -0.7681 H   0  0  0  0  0  0  0  0  0  0  0  0
   -6.6931   -1.3992    0.4676 H   0  0  0  0  0  0  0  0  0  0  0  0
  1  5  1  0
  5  6  2  0
  6  8  1  0
  8 10  2  0
 10 12  1  0
 12  5  1  0
  1  2  1  0
  1  3  1  0
  1  4  1  0
  6  7  1  0
  8  9  1  0
 10 11  1  0
 12 13  1  0
 14 18  1  0
 18 19  2  0
 18 20  1  0
 20 21  1  0
 21 24  1  0
 24 27  1  0
 27 30  1  0
 30 20  1  0
 14 15  1  0
 14 16  1  0
 14 17  1  0
 21 22  1  0
 21 23  1  0
 24 25  1  0
 24 26  1  0
 27 28  1  0
 27 29  1  0
 30 31  1  0
 30 32  1  0
M  CHG  1   8   1
M  END
>  <PDB_ID>  (120) 
pdb3ry0

>  <RESIDUE_NAME>  (120) 
HIP   PRO

>  <FRAG_NAME>  (120) 
MIMM   N1PA

>  <FRAG_ATOM_NUM>  (120) 
fragi: 13  fragj: 19

>  <atom.prop.CHAIN_ID>  (120) 
A A A A A A A A A A A A A Z Z Z Z Z Z Z Z Z Z Z Z Z Z Z Z Z Z Z

>  <atom.prop.IS_HEAVY_ATOM>  (120) 
1 0 0 0 1 1 0 1 0 1 0 1 0 1 0 0 0 1 1 1 1 0 0 1 0 0 1 0 0 1 0 0

>  <DIFUSE_FUNC_ATOM>  (120) 
n/a

>  <FINAL_SINGLE_POINT_ENERGY>  (120) 
0

>  <NONCOV_INTER_ENERGY_QM>  (120) 
0

>  <FF_Energy>  (120) 
-16.89

>  <QM_Energy>  (120) 
-26.09

>  <Index>  (120) 
728

$$$$
MIMM-pdb3s5t-A-HIP-45:N1PA-pdb3s5t-A-PRO-53
     RDKit          3D

 32 32  0  0  0  0  0  0  0  0999 V2000
   -0.5985    2.7318    0.1122 C   0  0  0  0  0  0  0  0  0  0  0  0
    0.0082    3.2246    0.7459 H   0  0  0  0  0  0  0  0  0  0  0  0
   -1.5344    2.7601    0.4808 H   0  0  0  0  0  0  0  0  0  0  0  0
   -0.5835    3.2331   -0.8556 H   0  0  0  0  0  0  0  0  0  0  0  0
   -0.1598    1.3065    0.0519 C   0  0  0  0  0  0  0  0  0  0  0  0
    1.0853    0.7865   -0.0000 C   0  0  0  0  0  0  0  0  0  0  0  0
    1.9428    1.2809   -0.0112 H   0  0  0  0  0  0  0  0  0  0  0  0
    0.9332   -0.5907   -0.0335 N   0  0  0  0  0  4  0  0  0  0  0  0
    1.6570   -1.2593   -0.0642 H   0  0  0  0  0  0  0  0  0  0  0  0
   -0.3794   -0.8450   -0.0178 C   0  0  0  0  0  0  0  0  0  0  0  0
   -0.7734   -1.7758   -0.0184 H   0  0  0  0  0  0  0  0  0  0  0  0
   -1.0853    0.2735   -0.0000 N   0  0  0  0  0  0  0  0  0  0  0  0
   -2.0570    0.3631   -0.0194 H   0  0  0  0  0  0  0  0  0  0  0  0
   -5.3959    1.0016    1.4651 C   0  0  0  0  0  0  0  0  0  0  0  0
   -6.3673    0.7417    1.5648 H   0  0  0  0  0  0  0  0  0  0  0  0
   -4.8309    0.5338    2.2714 H   0  0  0  0  0  0  0  0  0  0  0  0
   -5.3464    2.0880    1.5383 H   0  0  0  0  0  0  0  0  0  0  0  0
   -4.9083    0.5631    0.0820 C   0  0  0  0  0  0  0  0  0  0  0  0
   -3.7855    0.0942   -0.0343 O   0  0  0  0  0  0  0  0  0  0  0  0
   -5.7045    0.7770   -0.9942 N   0  0  0  0  0  0  0  0  0  0  0  0
   -5.2377    0.4161   -2.3464 C   0  0  0  0  0  0  0  0  0  0  0  0
   -5.1144   -0.5844   -2.4197 H   0  0  0  0  0  0  0  0  0  0  0  0
   -4.3216    0.9413   -2.6168 H   0  0  0  0  0  0  0  0  0  0  0  0
   -6.4183    0.8190   -3.2378 C   0  0  0  0  0  0  0  0  0  0  0  0
   -6.3136    1.7518   -3.5723 H   0  0  0  0  0  0  0  0  0  0  0  0
   -6.5201    0.1918   -4.0046 H   0  0  0  0  0  0  0  0  0  0  0  0
   -7.6271    0.7225   -2.3126 C   0  0  0  0  0  0  0  0  0  0  0  0
   -8.3714    1.2619   -2.6748 H   0  0  0  0  0  0  0  0  0  0  0  0
   -7.8870   -0.2236   -2.1988 H   0  0  0  0  0  0  0  0  0  0  0  0
   -7.0848    1.3060   -1.0438 C   0  0  0  0  0  0  0  0  0  0  0  0
   -7.0725    2.3049   -1.0707 H   0  0  0  0  0  0  0  0  0  0  0  0
   -7.6023    1.0003   -0.2441 H   0  0  0  0  0  0  0  0  0  0  0  0
  1  5  1  0
  5  6  2  0
  6  8  1  0
  8 10  2  0
 10 12  1  0
 12  5  1  0
  1  2  1  0
  1  3  1  0
  1  4  1  0
  6  7  1  0
  8  9  1  0
 10 11  1  0
 12 13  1  0
 14 18  1  0
 18 19  2  0
 18 20  1  0
 20 21  1  0
 21 24  1  0
 24 27  1  0
 27 30  1  0
 30 20  1  0
 14 15  1  0
 14 16  1  0
 14 17  1  0
 21 22  1  0
 21 23  1  0
 24 25  1  0
 24 26  1  0
 27 28  1  0
 27 29  1  0
 30 31  1  0
 30 32  1  0
M  CHG  1   8   1
M  END
>  <PDB_ID>  (121) 
pdb3s5t

>  <RESIDUE_NAME>  (121) 
HIP   PRO

>  <FRAG_NAME>  (121) 
MIMM   N1PA

>  <FRAG_ATOM_NUM>  (121) 
fragi: 13  fragj: 19

>  <atom.prop.CHAIN_ID>  (121) 
A A A A A A A A A A A A A Z Z Z Z Z Z Z Z Z Z Z Z Z Z Z Z Z Z Z

>  <atom.prop.IS_HEAVY_ATOM>  (121) 
1 0 0 0 1 1 0 1 0 1 0 1 0 1 0 0 0 1 1 1 1 0 0 1 0 0 1 0 0 1 0 0

>  <DIFUSE_FUNC_ATOM>  (121) 
n/a

>  <FINAL_SINGLE_POINT_ENERGY>  (121) 
0

>  <NONCOV_INTER_ENERGY_QM>  (121) 
0

>  <FF_Energy>  (121) 
-17.53

>  <QM_Energy>  (121) 
-26.23

>  <Index>  (121) 
732

$$$$
MIMM-pdb4rk2-A-HIP-295:N1PA-pdb4rk2-A-PRO-300
     RDKit          3D

 32 32  0  0  0  0  0  0  0  0999 V2000
   -0.6727    2.7442    0.0677 C   0  0  0  0  0  0  0  0  0  0  0  0
   -1.4883    2.8188   -0.5099 H   0  0  0  0  0  0  0  0  0  0  0  0
    0.0479    3.3341   -0.3030 H   0  0  0  0  0  0  0  0  0  0  0  0
   -0.9240    3.0941    1.0690 H   0  0  0  0  0  0  0  0  0  0  0  0
   -0.1893    1.3191    0.0325 C   0  0  0  0  0  0  0  0  0  0  0  0
    1.0561    0.7998    0.0000 C   0  0  0  0  0  0  0  0  0  0  0  0
    1.9126    1.3097   -0.0007 H   0  0  0  0  0  0  0  0  0  0  0  0
    0.9245   -0.5662   -0.0302 N   0  0  0  0  0  4  0  0  0  0  0  0
    1.6798   -1.2230   -0.0637 H   0  0  0  0  0  0  0  0  0  0  0  0
   -0.3588   -0.8721   -0.0099 C   0  0  0  0  0  0  0  0  0  0  0  0
   -0.7352   -1.7971   -0.0023 H   0  0  0  0  0  0  0  0  0  0  0  0
   -1.0561    0.2443   -0.0000 N   0  0  0  0  0  0  0  0  0  0  0  0
   -2.0530    0.3107   -0.0141 H   0  0  0  0  0  0  0  0  0  0  0  0
   -3.7385    2.0082   -3.4827 C   0  0  0  0  0  0  0  0  0  0  0  0
   -4.1558    2.1921   -4.3708 H   0  0  0  0  0  0  0  0  0  0  0  0
   -4.1677    1.0913   -3.0787 H   0  0  0  0  0  0  0  0  0  0  0  0
   -3.8948    2.8354   -2.7903 H   0  0  0  0  0  0  0  0  0  0  0  0
   -2.2449    1.7834   -3.7055 C   0  0  0  0  0  0  0  0  0  0  0  0
   -1.5303    1.2252   -2.8639 O   0  0  0  0  0  0  0  0  0  0  0  0
   -1.7240    2.2358   -4.8359 N   0  0  0  0  0  0  0  0  0  0  0  0
   -0.3016    1.9676   -5.0564 C   0  0  0  0  0  0  0  0  0  0  0  0
   -0.1256    0.9663   -5.0787 H   0  0  0  0  0  0  0  0  0  0  0  0
    0.3479    2.4489   -4.3253 H   0  0  0  0  0  0  0  0  0  0  0  0
   -0.0406    2.5556   -6.4517 C   0  0  0  0  0  0  0  0  0  0  0  0
    0.3773    3.4653   -6.3774 H   0  0  0  0  0  0  0  0  0  0  0  0
    0.5704    1.9587   -6.9771 H   0  0  0  0  0  0  0  0  0  0  0  0
   -1.3918    2.6384   -7.0950 C   0  0  0  0  0  0  0  0  0  0  0  0
   -1.4165    3.4164   -7.7489 H   0  0  0  0  0  0  0  0  0  0  0  0
   -1.5709    1.7946   -7.6337 H   0  0  0  0  0  0  0  0  0  0  0  0
   -2.4001    2.8108   -6.0159 C   0  0  0  0  0  0  0  0  0  0  0  0
   -2.6167    3.7746   -5.8548 H   0  0  0  0  0  0  0  0  0  0  0  0
   -3.2456    2.3093   -6.2082 H   0  0  0  0  0  0  0  0  0  0  0  0
  1  5  1  0
  5  6  2  0
  6  8  1  0
  8 10  2  0
 10 12  1  0
 12  5  1  0
  1  2  1  0
  1  3  1  0
  1  4  1  0
  6  7  1  0
  8  9  1  0
 10 11  1  0
 12 13  1  0
 14 18  1  0
 18 19  2  0
 18 20  1  0
 20 21  1  0
 21 24  1  0
 24 27  1  0
 27 30  1  0
 30 20  1  0
 14 15  1  0
 14 16  1  0
 14 17  1  0
 21 22  1  0
 21 23  1  0
 24 25  1  0
 24 26  1  0
 27 28  1  0
 27 29  1  0
 30 31  1  0
 30 32  1  0
M  CHG  1   8   1
M  END
>  <PDB_ID>  (122) 
pdb4rk2

>  <RESIDUE_NAME>  (122) 
HIP   PRO

>  <FRAG_NAME>  (122) 
MIMM   N1PA

>  <FRAG_ATOM_NUM>  (122) 
fragi: 13  fragj: 19

>  <atom.prop.CHAIN_ID>  (122) 
A A A A A A A A A A A A A Z Z Z Z Z Z Z Z Z Z Z Z Z Z Z Z Z Z Z

>  <atom.prop.IS_HEAVY_ATOM>  (122) 
1 0 0 0 1 1 0 1 0 1 0 1 0 1 0 0 0 1 1 1 1 0 0 1 0 0 1 0 0 1 0 0

>  <DIFUSE_FUNC_ATOM>  (122) 
n/a

>  <FINAL_SINGLE_POINT_ENERGY>  (122) 
0

>  <NONCOV_INTER_ENERGY_QM>  (122) 
0

>  <FF_Energy>  (122) 
-11.26

>  <QM_Energy>  (122) 
-17.0

>  <Index>  (122) 
765

$$$$
MIMM-pdb4rk2-B-HIP-295:N1PA-pdb4rk2-B-PRO-300
     RDKit          3D

 32 32  0  0  0  0  0  0  0  0999 V2000
   -0.6687    2.7535    0.0246 C   0  0  0  0  0  0  0  0  0  0  0  0
   -1.4974    2.8145   -0.5399 H   0  0  0  0  0  0  0  0  0  0  0  0
    0.0457    3.3265   -0.3870 H   0  0  0  0  0  0  0  0  0  0  0  0
   -0.9000    3.1581    1.0100 H   0  0  0  0  0  0  0  0  0  0  0  0
   -0.1931    1.3208    0.0296 C   0  0  0  0  0  0  0  0  0  0  0  0
    1.0575    0.7997    0.0000 C   0  0  0  0  0  0  0  0  0  0  0  0
    1.9114    1.3120   -0.0116 H   0  0  0  0  0  0  0  0  0  0  0  0
    0.9283   -0.5678   -0.0104 N   0  0  0  0  0  4  0  0  0  0  0  0
    1.6839   -1.2252   -0.0169 H   0  0  0  0  0  0  0  0  0  0  0  0
   -0.3586   -0.8776   -0.0120 C   0  0  0  0  0  0  0  0  0  0  0  0
   -0.7352   -1.7985   -0.0192 H   0  0  0  0  0  0  0  0  0  0  0  0
   -1.0575    0.2458   -0.0000 N   0  0  0  0  0  0  0  0  0  0  0  0
   -2.0542    0.3087   -0.0114 H   0  0  0  0  0  0  0  0  0  0  0  0
   -4.0283    1.6421   -3.4222 C   0  0  0  0  0  0  0  0  0  0  0  0
   -4.4991    1.7894   -4.2896 H   0  0  0  0  0  0  0  0  0  0  0  0
   -4.3466    0.6832   -3.0133 H   0  0  0  0  0  0  0  0  0  0  0  0
   -4.2574    2.4545   -2.7326 H   0  0  0  0  0  0  0  0  0  0  0  0
   -2.5298    1.5770   -3.7079 C   0  0  0  0  0  0  0  0  0  0  0  0
   -1.7858    1.0299   -2.9127 O   0  0  0  0  0  0  0  0  0  0  0  0
   -2.0881    2.1120   -4.8580 N   0  0  0  0  0  0  0  0  0  0  0  0
   -0.6581    2.0141   -5.1930 C   0  0  0  0  0  0  0  0  0  0  0  0
   -0.3848    1.0249   -5.2806 H   0  0  0  0  0  0  0  0  0  0  0  0
    0.0305    2.5335   -4.5264 H   0  0  0  0  0  0  0  0  0  0  0  0
   -0.5773    2.6137   -6.6062 C   0  0  0  0  0  0  0  0  0  0  0  0
   -0.3337    3.5865   -6.5611 H   0  0  0  0  0  0  0  0  0  0  0  0
    0.1116    2.1311   -7.1533 H   0  0  0  0  0  0  0  0  0  0  0  0
   -1.9432    2.4285   -7.1761 C   0  0  0  0  0  0  0  0  0  0  0  0
   -2.1417    3.1464   -7.8588 H   0  0  0  0  0  0  0  0  0  0  0  0
   -2.0140    1.5336   -7.6400 H   0  0  0  0  0  0  0  0  0  0  0  0
   -2.9052    2.5080   -6.0234 C   0  0  0  0  0  0  0  0  0  0  0  0
   -3.2583    3.4369   -5.9023 H   0  0  0  0  0  0  0  0  0  0  0  0
   -3.6746    1.8763   -6.1413 H   0  0  0  0  0  0  0  0  0  0  0  0
  1  5  1  0
  5  6  2  0
  6  8  1  0
  8 10  2  0
 10 12  1  0
 12  5  1  0
  1  2  1  0
  1  3  1  0
  1  4  1  0
  6  7  1  0
  8  9  1  0
 10 11  1  0
 12 13  1  0
 14 18  1  0
 18 19  2  0
 18 20  1  0
 20 21  1  0
 21 24  1  0
 24 27  1  0
 27 30  1  0
 30 20  1  0
 14 15  1  0
 14 16  1  0
 14 17  1  0
 21 22  1  0
 21 23  1  0
 24 25  1  0
 24 26  1  0
 27 28  1  0
 27 29  1  0
 30 31  1  0
 30 32  1  0
M  CHG  1   8   1
M  END
>  <PDB_ID>  (123) 
pdb4rk2

>  <RESIDUE_NAME>  (123) 
HIP   PRO

>  <FRAG_NAME>  (123) 
MIMM   N1PA

>  <FRAG_ATOM_NUM>  (123) 
fragi: 13  fragj: 19

>  <atom.prop.CHAIN_ID>  (123) 
A A A A A A A A A A A A A Z Z Z Z Z Z Z Z Z Z Z Z Z Z Z Z Z Z Z

>  <atom.prop.IS_HEAVY_ATOM>  (123) 
1 0 0 0 1 1 0 1 0 1 0 1 0 1 0 0 0 1 1 1 1 0 0 1 0 0 1 0 0 1 0 0

>  <DIFUSE_FUNC_ATOM>  (123) 
n/a

>  <FINAL_SINGLE_POINT_ENERGY>  (123) 
0

>  <NONCOV_INTER_ENERGY_QM>  (123) 
0

>  <FF_Energy>  (123) 
-11.15

>  <QM_Energy>  (123) 
-16.27

>  <Index>  (123) 
766

$$$$
MIMM-pdb3tjo-D-HIP-167:N1PA-pdb3tjo-D-PRO-162
     RDKit          3D

 32 32  0  0  0  0  0  0  0  0999 V2000
   -0.6697    2.7389   -0.0063 C   0  0  0  0  0  0  0  0  0  0  0  0
   -1.6756    2.7359    0.0295 H   0  0  0  0  0  0  0  0  0  0  0  0
   -0.3835    3.1680   -0.8713 H   0  0  0  0  0  0  0  0  0  0  0  0
   -0.2884    3.3325    0.8246 H   0  0  0  0  0  0  0  0  0  0  0  0
   -0.1939    1.3206   -0.0043 C   0  0  0  0  0  0  0  0  0  0  0  0
    1.0565    0.8011    0.0000 C   0  0  0  0  0  0  0  0  0  0  0  0
    1.9111    1.3122    0.0015 H   0  0  0  0  0  0  0  0  0  0  0  0
    0.9273   -0.5676    0.0028 N   0  0  0  0  0  4  0  0  0  0  0  0
    1.6847   -1.2237    0.0047 H   0  0  0  0  0  0  0  0  0  0  0  0
   -0.3569   -0.8771    0.0009 C   0  0  0  0  0  0  0  0  0  0  0  0
   -0.7334   -1.7991    0.0015 H   0  0  0  0  0  0  0  0  0  0  0  0
   -1.0565    0.2450    0.0000 N   0  0  0  0  0  0  0  0  0  0  0  0
   -2.0538    0.3066    0.0015 H   0  0  0  0  0  0  0  0  0  0  0  0
   -5.2737   -1.1150   -1.8626 C   0  0  0  0  0  0  0  0  0  0  0  0
   -5.5886   -0.9061   -0.9258 H   0  0  0  0  0  0  0  0  0  0  0  0
   -6.1317   -0.9990   -2.5248 H   0  0  0  0  0  0  0  0  0  0  0  0
   -4.9077   -2.1417   -1.8711 H   0  0  0  0  0  0  0  0  0  0  0  0
   -4.1477   -0.1171   -2.1842 C   0  0  0  0  0  0  0  0  0  0  0  0
   -3.5754    0.4679   -1.2644 O   0  0  0  0  0  0  0  0  0  0  0  0
   -3.8181    0.0786   -3.4822 N   0  0  0  0  0  0  0  0  0  0  0  0
   -2.9681    1.2268   -3.8114 C   0  0  0  0  0  0  0  0  0  0  0  0
   -2.1893    1.2878   -3.1861 H   0  0  0  0  0  0  0  0  0  0  0  0
   -3.5590    2.1423   -3.7833 H   0  0  0  0  0  0  0  0  0  0  0  0
   -2.4877    0.9229   -5.2405 C   0  0  0  0  0  0  0  0  0  0  0  0
   -2.9348    1.5390   -5.9003 H   0  0  0  0  0  0  0  0  0  0  0  0
   -1.4917    1.0520   -5.3121 H   0  0  0  0  0  0  0  0  0  0  0  0
   -2.8622   -0.5034   -5.5043 C   0  0  0  0  0  0  0  0  0  0  0  0
   -3.0604   -0.6348   -6.4834 H   0  0  0  0  0  0  0  0  0  0  0  0
   -2.1012   -1.1138   -5.2513 H   0  0  0  0  0  0  0  0  0  0  0  0
   -4.0650   -0.7615   -4.6689 C   0  0  0  0  0  0  0  0  0  0  0  0
   -4.9059   -0.4768   -5.1261 H   0  0  0  0  0  0  0  0  0  0  0  0
   -4.1382   -1.7238   -4.4040 H   0  0  0  0  0  0  0  0  0  0  0  0
  1  5  1  0
  5  6  2  0
  6  8  1  0
  8 10  2  0
 10 12  1  0
 12  5  1  0
  1  2  1  0
  1  3  1  0
  1  4  1  0
  6  7  1  0
  8  9  1  0
 10 11  1  0
 12 13  1  0
 14 18  1  0
 18 19  2  0
 18 20  1  0
 20 21  1  0
 21 24  1  0
 24 27  1  0
 27 30  1  0
 30 20  1  0
 14 15  1  0
 14 16  1  0
 14 17  1  0
 21 22  1  0
 21 23  1  0
 24 25  1  0
 24 26  1  0
 27 28  1  0
 27 29  1  0
 30 31  1  0
 30 32  1  0
M  CHG  1   8   1
M  END
>  <PDB_ID>  (124) 
pdb3tjo

>  <RESIDUE_NAME>  (124) 
HIP   PRO

>  <FRAG_NAME>  (124) 
MIMM   N1PA

>  <FRAG_ATOM_NUM>  (124) 
fragi: 13  fragj: 19

>  <atom.prop.CHAIN_ID>  (124) 
A A A A A A A A A A A A A Z Z Z Z Z Z Z Z Z Z Z Z Z Z Z Z Z Z Z

>  <atom.prop.IS_HEAVY_ATOM>  (124) 
1 0 0 0 1 1 0 1 0 1 0 1 0 1 0 0 0 1 1 1 1 0 0 1 0 0 1 0 0 1 0 0

>  <DIFUSE_FUNC_ATOM>  (124) 
n/a

>  <FINAL_SINGLE_POINT_ENERGY>  (124) 
0

>  <NONCOV_INTER_ENERGY_QM>  (124) 
0

>  <FF_Energy>  (124) 
-15.39

>  <QM_Energy>  (124) 
-20.91

>  <Index>  (124) 
767

$$$$
MIMM-pdb3tva-A-HIP-163:N1PA-pdb3tva-A-PRO-124
     RDKit          3D

 32 32  0  0  0  0  0  0  0  0999 V2000
   -0.6566    2.7525   -0.0022 C   0  0  0  0  0  0  0  0  0  0  0  0
   -0.9797    2.9845    0.9258 H   0  0  0  0  0  0  0  0  0  0  0  0
   -1.4438    2.8255   -0.6313 H   0  0  0  0  0  0  0  0  0  0  0  0
    0.0982    3.4796   -0.3019 H   0  0  0  0  0  0  0  0  0  0  0  0
   -0.1942    1.3225    0.0054 C   0  0  0  0  0  0  0  0  0  0  0  0
    1.0558    0.7989    0.0000 C   0  0  0  0  0  0  0  0  0  0  0  0
    1.9115    1.3118   -0.0047 H   0  0  0  0  0  0  0  0  0  0  0  0
    0.9274   -0.5677    0.0036 N   0  0  0  0  0  4  0  0  0  0  0  0
    1.6848   -1.2244    0.0095 H   0  0  0  0  0  0  0  0  0  0  0  0
   -0.3554   -0.8774   -0.0038 C   0  0  0  0  0  0  0  0  0  0  0  0
   -0.7332   -1.7986   -0.0090 H   0  0  0  0  0  0  0  0  0  0  0  0
   -1.0558    0.2449   -0.0000 N   0  0  0  0  0  0  0  0  0  0  0  0
   -2.0537    0.3056   -0.0021 H   0  0  0  0  0  0  0  0  0  0  0  0
   -1.2694   -3.6440   -3.4104 C   0  0  0  0  0  0  0  0  0  0  0  0
   -0.8583   -4.3501   -3.9848 H   0  0  0  0  0  0  0  0  0  0  0  0
   -2.3521   -3.6952   -3.5258 H   0  0  0  0  0  0  0  0  0  0  0  0
   -0.8797   -2.6645   -3.6873 H   0  0  0  0  0  0  0  0  0  0  0  0
   -0.9120   -3.9515   -1.9570 C   0  0  0  0  0  0  0  0  0  0  0  0
   -1.4171   -3.3038   -1.0454 O   0  0  0  0  0  0  0  0  0  0  0  0
   -0.0679   -4.9677   -1.7423 N   0  0  0  0  0  0  0  0  0  0  0  0
    0.3761   -5.4076   -0.4099 C   0  0  0  0  0  0  0  0  0  0  0  0
   -0.4124   -5.7047    0.1459 H   0  0  0  0  0  0  0  0  0  0  0  0
    0.9401   -4.6300    0.1054 H   0  0  0  0  0  0  0  0  0  0  0  0
    1.3270   -6.5670   -0.7218 C   0  0  0  0  0  0  0  0  0  0  0  0
    2.2873   -6.2666   -0.6314 H   0  0  0  0  0  0  0  0  0  0  0  0
    1.1778   -7.3273   -0.0746 H   0  0  0  0  0  0  0  0  0  0  0  0
    1.0215   -6.9768   -2.1110 C   0  0  0  0  0  0  0  0  0  0  0  0
    1.8471   -7.3566   -2.5591 H   0  0  0  0  0  0  0  0  0  0  0  0
    0.3136   -7.7026   -2.1197 H   0  0  0  0  0  0  0  0  0  0  0  0
    0.5436   -5.7584   -2.8195 C   0  0  0  0  0  0  0  0  0  0  0  0
    1.2976   -5.2513   -3.2399 H   0  0  0  0  0  0  0  0  0  0  0  0
   -0.1372   -5.9776   -3.5215 H   0  0  0  0  0  0  0  0  0  0  0  0
  1  5  1  0
  5  6  2  0
  6  8  1  0
  8 10  2  0
 10 12  1  0
 12  5  1  0
  1  2  1  0
  1  3  1  0
  1  4  1  0
  6  7  1  0
  8  9  1  0
 10 11  1  0
 12 13  1  0
 14 18  1  0
 18 19  2  0
 18 20  1  0
 20 21  1  0
 21 24  1  0
 24 27  1  0
 27 30  1  0
 30 20  1  0
 14 15  1  0
 14 16  1  0
 14 17  1  0
 21 22  1  0
 21 23  1  0
 24 25  1  0
 24 26  1  0
 27 28  1  0
 27 29  1  0
 30 31  1  0
 30 32  1  0
M  CHG  1   8   1
M  END
>  <PDB_ID>  (125) 
pdb3tva

>  <RESIDUE_NAME>  (125) 
HIP   PRO

>  <FRAG_NAME>  (125) 
MIMM   N1PA

>  <FRAG_ATOM_NUM>  (125) 
fragi: 13  fragj: 19

>  <atom.prop.CHAIN_ID>  (125) 
A A A A A A A A A A A A A Z Z Z Z Z Z Z Z Z Z Z Z Z Z Z Z Z Z Z

>  <atom.prop.IS_HEAVY_ATOM>  (125) 
1 0 0 0 1 1 0 1 0 1 0 1 0 1 0 0 0 1 1 1 1 0 0 1 0 0 1 0 0 1 0 0

>  <DIFUSE_FUNC_ATOM>  (125) 
n/a

>  <FINAL_SINGLE_POINT_ENERGY>  (125) 
0

>  <NONCOV_INTER_ENERGY_QM>  (125) 
0

>  <FF_Energy>  (125) 
2.18

>  <QM_Energy>  (125) 
-17.36

>  <Index>  (125) 
770

$$$$
MIMM-pdb4u4i-A-HIP-51:N1PA-pdb4u4i-A-PRO-48
     RDKit          3D

 32 32  0  0  0  0  0  0  0  0999 V2000
   -0.6742    2.7418   -0.0152 C   0  0  0  0  0  0  0  0  0  0  0  0
    0.0949    3.3377    0.2424 H   0  0  0  0  0  0  0  0  0  0  0  0
   -1.3955    2.8353    0.6815 H   0  0  0  0  0  0  0  0  0  0  0  0
   -1.0694    3.0744   -0.9750 H   0  0  0  0  0  0  0  0  0  0  0  0
   -0.1945    1.3217   -0.0100 C   0  0  0  0  0  0  0  0  0  0  0  0
    1.0563    0.8006   -0.0000 C   0  0  0  0  0  0  0  0  0  0  0  0
    1.9114    1.3124    0.0056 H   0  0  0  0  0  0  0  0  0  0  0  0
    0.9285   -0.5693    0.0025 N   0  0  0  0  0  4  0  0  0  0  0  0
    1.6852   -1.2241    0.0022 H   0  0  0  0  0  0  0  0  0  0  0  0
   -0.3565   -0.8772    0.0034 C   0  0  0  0  0  0  0  0  0  0  0  0
   -0.7340   -1.7988    0.0075 H   0  0  0  0  0  0  0  0  0  0  0  0
   -1.0563    0.2459    0.0000 N   0  0  0  0  0  0  0  0  0  0  0  0
   -2.0546    0.3065    0.0032 H   0  0  0  0  0  0  0  0  0  0  0  0
    2.8822   -3.9256    1.7686 C   0  0  0  0  0  0  0  0  0  0  0  0
    3.3579   -4.8146    1.7978 H   0  0  0  0  0  0  0  0  0  0  0  0
    2.9256   -3.4334    2.7402 H   0  0  0  0  0  0  0  0  0  0  0  0
    1.8155   -4.0766    1.6032 H   0  0  0  0  0  0  0  0  0  0  0  0
    3.4608   -3.0413    0.6621 C   0  0  0  0  0  0  0  0  0  0  0  0
    3.0743   -1.8767    0.5613 O   0  0  0  0  0  0  0  0  0  0  0  0
    4.3602   -3.5876   -0.1706 N   0  0  0  0  0  0  0  0  0  0  0  0
    4.9594   -2.8019   -1.2574 C   0  0  0  0  0  0  0  0  0  0  0  0
    5.5101   -2.0386   -0.8818 H   0  0  0  0  0  0  0  0  0  0  0  0
    4.2193   -2.4273   -1.9647 H   0  0  0  0  0  0  0  0  0  0  0  0
    5.9044   -3.8034   -1.9379 C   0  0  0  0  0  0  0  0  0  0  0  0
    5.4689   -4.1899   -2.7598 H   0  0  0  0  0  0  0  0  0  0  0  0
    6.7554   -3.3450   -2.2174 H   0  0  0  0  0  0  0  0  0  0  0  0
    6.1607   -4.8462   -0.9220 C   0  0  0  0  0  0  0  0  0  0  0  0
    6.3794   -5.7295   -1.3595 H   0  0  0  0  0  0  0  0  0  0  0  0
    6.9387   -4.5903   -0.3323 H   0  0  0  0  0  0  0  0  0  0  0  0
    4.8980   -4.9554   -0.1129 C   0  0  0  0  0  0  0  0  0  0  0  0
    4.2576   -5.6022   -0.5204 H   0  0  0  0  0  0  0  0  0  0  0  0
    5.0892   -5.2194    0.8312 H   0  0  0  0  0  0  0  0  0  0  0  0
  1  5  1  0
  5  6  2  0
  6  8  1  0
  8 10  2  0
 10 12  1  0
 12  5  1  0
  1  2  1  0
  1  3  1  0
  1  4  1  0
  6  7  1  0
  8  9  1  0
 10 11  1  0
 12 13  1  0
 14 18  1  0
 18 19  2  0
 18 20  1  0
 20 21  1  0
 21 24  1  0
 24 27  1  0
 27 30  1  0
 30 20  1  0
 14 15  1  0
 14 16  1  0
 14 17  1  0
 21 22  1  0
 21 23  1  0
 24 25  1  0
 24 26  1  0
 27 28  1  0
 27 29  1  0
 30 31  1  0
 30 32  1  0
M  CHG  1   8   1
M  END
>  <PDB_ID>  (126) 
pdb4u4i

>  <RESIDUE_NAME>  (126) 
HIP   PRO

>  <FRAG_NAME>  (126) 
MIMM   N1PA

>  <FRAG_ATOM_NUM>  (126) 
fragi: 13  fragj: 19

>  <atom.prop.CHAIN_ID>  (126) 
A A A A A A A A A A A A A Z Z Z Z Z Z Z Z Z Z Z Z Z Z Z Z Z Z Z

>  <atom.prop.IS_HEAVY_ATOM>  (126) 
1 0 0 0 1 1 0 1 0 1 0 1 0 1 0 0 0 1 1 1 1 0 0 1 0 0 1 0 0 1 0 0

>  <DIFUSE_FUNC_ATOM>  (126) 
n/a

>  <FINAL_SINGLE_POINT_ENERGY>  (126) 
0

>  <NONCOV_INTER_ENERGY_QM>  (126) 
0

>  <FF_Energy>  (126) 
-15.31

>  <QM_Energy>  (126) 
-24.65

>  <Index>  (126) 
783

$$$$
MIMM-pdb4w66-A-HIP-188:N1PA-pdb4w66-A-PRO-146
     RDKit          3D

 32 32  0  0  0  0  0  0  0  0999 V2000
   -0.6778    2.7358   -0.0401 C   0  0  0  0  0  0  0  0  0  0  0  0
   -1.3088    2.8649    0.7352 H   0  0  0  0  0  0  0  0  0  0  0  0
   -1.1948    2.8788   -0.8935 H   0  0  0  0  0  0  0  0  0  0  0  0
    0.1168    3.4796    0.0209 H   0  0  0  0  0  0  0  0  0  0  0  0
   -0.1926    1.3201   -0.0183 C   0  0  0  0  0  0  0  0  0  0  0  0
    1.0539    0.8020    0.0000 C   0  0  0  0  0  0  0  0  0  0  0  0
    1.9102    1.3126   -0.0000 H   0  0  0  0  0  0  0  0  0  0  0  0
    0.9248   -0.5652    0.0199 N   0  0  0  0  0  4  0  0  0  0  0  0
    1.6837   -1.2208    0.0418 H   0  0  0  0  0  0  0  0  0  0  0  0
   -0.3575   -0.8779    0.0043 C   0  0  0  0  0  0  0  0  0  0  0  0
   -0.7322   -1.7993   -0.0016 H   0  0  0  0  0  0  0  0  0  0  0  0
   -1.0539    0.2425    0.0000 N   0  0  0  0  0  0  0  0  0  0  0  0
   -2.0528    0.3057    0.0085 H   0  0  0  0  0  0  0  0  0  0  0  0
   -5.5479    2.6322   -0.7570 C   0  0  0  0  0  0  0  0  0  0  0  0
   -6.2512    3.0836   -1.3058 H   0  0  0  0  0  0  0  0  0  0  0  0
   -6.0309    1.9937   -0.0173 H   0  0  0  0  0  0  0  0  0  0  0  0
   -4.9115    3.3775   -0.2799 H   0  0  0  0  0  0  0  0  0  0  0  0
   -4.7211    1.7577   -1.6612 C   0  0  0  0  0  0  0  0  0  0  0  0
   -3.8746    1.0299   -1.1874 O   0  0  0  0  0  0  0  0  0  0  0  0
   -4.9299    1.8617   -2.9788 N   0  0  0  0  0  0  0  0  0  0  0  0
   -4.2117    0.9634   -3.8786 C   0  0  0  0  0  0  0  0  0  0  0  0
   -4.3578   -0.0051   -3.6109 H   0  0  0  0  0  0  0  0  0  0  0  0
   -3.1459    1.1844   -3.9357 H   0  0  0  0  0  0  0  0  0  0  0  0
   -4.8746    1.2138   -5.2279 C   0  0  0  0  0  0  0  0  0  0  0  0
   -4.2029    1.1374   -5.9758 H   0  0  0  0  0  0  0  0  0  0  0  0
   -5.6089    0.5452   -5.3957 H   0  0  0  0  0  0  0  0  0  0  0  0
   -5.4290    2.6028   -5.1543 C   0  0  0  0  0  0  0  0  0  0  0  0
   -4.8155    3.2527   -5.6389 H   0  0  0  0  0  0  0  0  0  0  0  0
   -6.3313    2.6461   -5.6204 H   0  0  0  0  0  0  0  0  0  0  0  0
   -5.5630    2.9831   -3.7021 C   0  0  0  0  0  0  0  0  0  0  0  0
   -5.0861    3.8416   -3.5028 H   0  0  0  0  0  0  0  0  0  0  0  0
   -6.5260    3.0736   -3.4339 H   0  0  0  0  0  0  0  0  0  0  0  0
  1  5  1  0
  5  6  2  0
  6  8  1  0
  8 10  2  0
 10 12  1  0
 12  5  1  0
  1  2  1  0
  1  3  1  0
  1  4  1  0
  6  7  1  0
  8  9  1  0
 10 11  1  0
 12 13  1  0
 14 18  1  0
 18 19  2  0
 18 20  1  0
 20 21  1  0
 21 24  1  0
 24 27  1  0
 27 30  1  0
 30 20  1  0
 14 15  1  0
 14 16  1  0
 14 17  1  0
 21 22  1  0
 21 23  1  0
 24 25  1  0
 24 26  1  0
 27 28  1  0
 27 29  1  0
 30 31  1  0
 30 32  1  0
M  CHG  1   8   1
M  END
>  <PDB_ID>  (127) 
pdb4w66

>  <RESIDUE_NAME>  (127) 
HIP   PRO

>  <FRAG_NAME>  (127) 
MIMM   N1PA

>  <FRAG_ATOM_NUM>  (127) 
fragi: 13  fragj: 19

>  <atom.prop.CHAIN_ID>  (127) 
A A A A A A A A A A A A A Z Z Z Z Z Z Z Z Z Z Z Z Z Z Z Z Z Z Z

>  <atom.prop.IS_HEAVY_ATOM>  (127) 
1 0 0 0 1 1 0 1 0 1 0 1 0 1 0 0 0 1 1 1 1 0 0 1 0 0 1 0 0 1 0 0

>  <DIFUSE_FUNC_ATOM>  (127) 
n/a

>  <FINAL_SINGLE_POINT_ENERGY>  (127) 
0

>  <NONCOV_INTER_ENERGY_QM>  (127) 
0

>  <FF_Energy>  (127) 
-14.1

>  <QM_Energy>  (127) 
-20.02

>  <Index>  (127) 
788

$$$$
MIMM-pdb4w78-B-HIP-117:N1PA-pdb4w78-B-PRO-83
     RDKit          3D

 32 32  0  0  0  0  0  0  0  0999 V2000
   -0.6693    2.7386    0.0186 C   0  0  0  0  0  0  0  0  0  0  0  0
   -1.1914    2.9074   -0.8247 H   0  0  0  0  0  0  0  0  0  0  0  0
    0.1372    3.3406    0.0188 H   0  0  0  0  0  0  0  0  0  0  0  0
   -1.2937    2.9790    0.8791 H   0  0  0  0  0  0  0  0  0  0  0  0
   -0.1923    1.3190   -0.0017 C   0  0  0  0  0  0  0  0  0  0  0  0
    1.0580    0.7995    0.0000 C   0  0  0  0  0  0  0  0  0  0  0  0
    1.9124    1.3106    0.0055 H   0  0  0  0  0  0  0  0  0  0  0  0
    0.9281   -0.5689   -0.0053 N   0  0  0  0  0  4  0  0  0  0  0  0
    1.6841   -1.2258   -0.0141 H   0  0  0  0  0  0  0  0  0  0  0  0
   -0.3575   -0.8767    0.0012 C   0  0  0  0  0  0  0  0  0  0  0  0
   -0.7358   -1.7975    0.0070 H   0  0  0  0  0  0  0  0  0  0  0  0
   -1.0580    0.2479    0.0000 N   0  0  0  0  0  0  0  0  0  0  0  0
   -2.0543    0.3091   -0.0001 H   0  0  0  0  0  0  0  0  0  0  0  0
   -5.8469    1.7793    0.7342 C   0  0  0  0  0  0  0  0  0  0  0  0
   -6.7056    1.2952    0.9263 H   0  0  0  0  0  0  0  0  0  0  0  0
   -5.3835    2.0412    1.6854 H   0  0  0  0  0  0  0  0  0  0  0  0
   -6.0706    2.6702    0.1475 H   0  0  0  0  0  0  0  0  0  0  0  0
   -4.9431    0.8347   -0.0586 C   0  0  0  0  0  0  0  0  0  0  0  0
   -3.7208    0.7990    0.1622 O   0  0  0  0  0  0  0  0  0  0  0  0
   -5.5300    0.0426   -0.9706 N   0  0  0  0  0  0  0  0  0  0  0  0
   -4.6872   -0.8836   -1.7403 C   0  0  0  0  0  0  0  0  0  0  0  0
   -4.1689   -1.4943   -1.1084 H   0  0  0  0  0  0  0  0  0  0  0  0
   -4.0112   -0.3891   -2.4378 H   0  0  0  0  0  0  0  0  0  0  0  0
   -5.7041   -1.7197   -2.5389 C   0  0  0  0  0  0  0  0  0  0  0  0
   -5.7497   -1.3983   -3.4907 H   0  0  0  0  0  0  0  0  0  0  0  0
   -5.4363   -2.6881   -2.5398 H   0  0  0  0  0  0  0  0  0  0  0  0
   -7.0071   -1.5212   -1.8422 C   0  0  0  0  0  0  0  0  0  0  0  0
   -7.7717   -1.6204   -2.4913 H   0  0  0  0  0  0  0  0  0  0  0  0
   -7.1228   -2.2063   -1.1119 H   0  0  0  0  0  0  0  0  0  0  0  0
   -6.9587   -0.1370   -1.2778 C   0  0  0  0  0  0  0  0  0  0  0  0
   -7.2616    0.5446   -1.9436 H   0  0  0  0  0  0  0  0  0  0  0  0
   -7.5088   -0.0567   -0.4456 H   0  0  0  0  0  0  0  0  0  0  0  0
  1  5  1  0
  5  6  2  0
  6  8  1  0
  8 10  2  0
 10 12  1  0
 12  5  1  0
  1  2  1  0
  1  3  1  0
  1  4  1  0
  6  7  1  0
  8  9  1  0
 10 11  1  0
 12 13  1  0
 14 18  1  0
 18 19  2  0
 18 20  1  0
 20 21  1  0
 21 24  1  0
 24 27  1  0
 27 30  1  0
 30 20  1  0
 14 15  1  0
 14 16  1  0
 14 17  1  0
 21 22  1  0
 21 23  1  0
 24 25  1  0
 24 26  1  0
 27 28  1  0
 27 29  1  0
 30 31  1  0
 30 32  1  0
M  CHG  1   8   1
M  END
>  <PDB_ID>  (128) 
pdb4w78

>  <RESIDUE_NAME>  (128) 
HIP   PRO

>  <FRAG_NAME>  (128) 
MIMM   N1PA

>  <FRAG_ATOM_NUM>  (128) 
fragi: 13  fragj: 19

>  <atom.prop.CHAIN_ID>  (128) 
A A A A A A A A A A A A A Z Z Z Z Z Z Z Z Z Z Z Z Z Z Z Z Z Z Z

>  <atom.prop.IS_HEAVY_ATOM>  (128) 
1 0 0 0 1 1 0 1 0 1 0 1 0 1 0 0 0 1 1 1 1 0 0 1 0 0 1 0 0 1 0 0

>  <DIFUSE_FUNC_ATOM>  (128) 
n/a

>  <FINAL_SINGLE_POINT_ENERGY>  (128) 
0

>  <NONCOV_INTER_ENERGY_QM>  (128) 
0

>  <FF_Energy>  (128) 
-18.37

>  <QM_Energy>  (128) 
-27.03

>  <Index>  (128) 
790

$$$$
MIMM-pdb4wm0-A-HIP-133:N1PA-pdb4wm0-A-PRO-95
     RDKit          3D

 32 32  0  0  0  0  0  0  0  0999 V2000
   -0.7132    2.7427   -0.0173 C   0  0  0  0  0  0  0  0  0  0  0  0
   -1.7104    2.7276    0.0993 H   0  0  0  0  0  0  0  0  0  0  0  0
   -0.4982    3.1386   -0.9147 H   0  0  0  0  0  0  0  0  0  0  0  0
   -0.2646    3.3539    0.7658 H   0  0  0  0  0  0  0  0  0  0  0  0
   -0.2260    1.3125   -0.0150 C   0  0  0  0  0  0  0  0  0  0  0  0
    1.0674    0.7843    0.0000 C   0  0  0  0  0  0  0  0  0  0  0  0
    1.8976    1.3283    0.0031 H   0  0  0  0  0  0  0  0  0  0  0  0
    0.9514   -0.5621    0.0105 N   0  0  0  0  0  4  0  0  0  0  0  0
    1.6960   -1.2300    0.0205 H   0  0  0  0  0  0  0  0  0  0  0  0
   -0.3545   -0.8839    0.0043 C   0  0  0  0  0  0  0  0  0  0  0  0
   -0.7254   -1.7952    0.0044 H   0  0  0  0  0  0  0  0  0  0  0  0
   -1.0674    0.2605    0.0000 N   0  0  0  0  0  0  0  0  0  0  0  0
   -2.0684    0.2924    0.0063 H   0  0  0  0  0  0  0  0  0  0  0  0
   -5.8393    1.5371   -1.8514 C   0  0  0  0  0  0  0  0  0  0  0  0
   -6.5979    2.2030   -1.7981 H   0  0  0  0  0  0  0  0  0  0  0  0
   -5.1729    1.8529   -2.6541 H   0  0  0  0  0  0  0  0  0  0  0  0
   -6.3197    0.5825   -2.0660 H   0  0  0  0  0  0  0  0  0  0  0  0
   -5.1498    1.5028   -0.4679 C   0  0  0  0  0  0  0  0  0  0  0  0
   -4.2742    0.6649   -0.2340 O   0  0  0  0  0  0  0  0  0  0  0  0
   -5.5488    2.4124    0.4511 N   0  0  0  0  0  0  0  0  0  0  0  0
   -4.8533    2.5844    1.7416 C   0  0  0  0  0  0  0  0  0  0  0  0
   -3.8622    2.7634    1.5866 H   0  0  0  0  0  0  0  0  0  0  0  0
   -4.9840    1.7521    2.4331 H   0  0  0  0  0  0  0  0  0  0  0  0
   -5.4693    3.8665    2.3103 C   0  0  0  0  0  0  0  0  0  0  0  0
   -5.5312    3.8151    3.3103 H   0  0  0  0  0  0  0  0  0  0  0  0
   -4.9181    4.6650    2.0588 H   0  0  0  0  0  0  0  0  0  0  0  0
   -6.8266    3.9365    1.6932 C   0  0  0  0  0  0  0  0  0  0  0  0
   -7.4991    3.4401    2.2615 H   0  0  0  0  0  0  0  0  0  0  0  0
   -7.1325    4.8977    1.6216 H   0  0  0  0  0  0  0  0  0  0  0  0
   -6.7154    3.3098    0.3292 C   0  0  0  0  0  0  0  0  0  0  0  0
   -7.5360    2.7861    0.0979 H   0  0  0  0  0  0  0  0  0  0  0  0
   -6.5542    3.9992   -0.3800 H   0  0  0  0  0  0  0  0  0  0  0  0
  1  5  1  0
  5  6  2  0
  6  8  1  0
  8 10  2  0
 10 12  1  0
 12  5  1  0
  1  2  1  0
  1  3  1  0
  1  4  1  0
  6  7  1  0
  8  9  1  0
 10 11  1  0
 12 13  1  0
 14 18  1  0
 18 19  2  0
 18 20  1  0
 20 21  1  0
 21 24  1  0
 24 27  1  0
 27 30  1  0
 30 20  1  0
 14 15  1  0
 14 16  1  0
 14 17  1  0
 21 22  1  0
 21 23  1  0
 24 25  1  0
 24 26  1  0
 27 28  1  0
 27 29  1  0
 30 31  1  0
 30 32  1  0
M  CHG  1   8   1
M  END
>  <PDB_ID>  (129) 
pdb4wm0

>  <RESIDUE_NAME>  (129) 
HIP   PRO

>  <FRAG_NAME>  (129) 
MIMM   N1PA

>  <FRAG_ATOM_NUM>  (129) 
fragi: 13  fragj: 19

>  <atom.prop.CHAIN_ID>  (129) 
A A A A A A A A A A A A A Z Z Z Z Z Z Z Z Z Z Z Z Z Z Z Z Z Z Z

>  <atom.prop.IS_HEAVY_ATOM>  (129) 
1 0 0 0 1 1 0 1 0 1 0 1 0 1 0 0 0 1 1 1 1 0 0 1 0 0 1 0 0 1 0 0

>  <DIFUSE_FUNC_ATOM>  (129) 
n/a

>  <FINAL_SINGLE_POINT_ENERGY>  (129) 
0

>  <NONCOV_INTER_ENERGY_QM>  (129) 
0

>  <FF_Energy>  (129) 
-14.22

>  <QM_Energy>  (129) 
-20.67

>  <Index>  (129) 
794

$$$$
MIMM-pdb3vvl-A-HIP-58:N1PA-pdb3vvl-A-PRO-66
     RDKit          3D

 32 32  0  0  0  0  0  0  0  0999 V2000
   -0.6736    2.7408   -0.0194 C   0  0  0  0  0  0  0  0  0  0  0  0
   -1.2344    2.8758   -0.8451 H   0  0  0  0  0  0  0  0  0  0  0  0
    0.1297    3.3448   -0.0807 H   0  0  0  0  0  0  0  0  0  0  0  0
   -1.2599    3.0227    0.8552 H   0  0  0  0  0  0  0  0  0  0  0  0
   -0.1941    1.3207   -0.0025 C   0  0  0  0  0  0  0  0  0  0  0  0
    1.0557    0.8012   -0.0000 C   0  0  0  0  0  0  0  0  0  0  0  0
    1.9107    1.3130    0.0015 H   0  0  0  0  0  0  0  0  0  0  0  0
    0.9273   -0.5678    0.0010 N   0  0  0  0  0  4  0  0  0  0  0  0
    1.6848   -1.2224    0.0016 H   0  0  0  0  0  0  0  0  0  0  0  0
   -0.3565   -0.8774    0.0002 C   0  0  0  0  0  0  0  0  0  0  0  0
   -0.7332   -1.7987    0.0014 H   0  0  0  0  0  0  0  0  0  0  0  0
   -1.0557    0.2445   -0.0000 N   0  0  0  0  0  0  0  0  0  0  0  0
   -2.0536    0.3058    0.0013 H   0  0  0  0  0  0  0  0  0  0  0  0
   -0.3490   -4.4806   -2.8780 C   0  0  0  0  0  0  0  0  0  0  0  0
    0.1180   -4.6840   -3.7332 H   0  0  0  0  0  0  0  0  0  0  0  0
   -1.0566   -5.2896   -2.6966 H   0  0  0  0  0  0  0  0  0  0  0  0
   -0.8290   -3.5020   -2.8711 H   0  0  0  0  0  0  0  0  0  0  0  0
    0.6929   -4.5223   -1.7731 C   0  0  0  0  0  0  0  0  0  0  0  0
    0.6196   -3.7552   -0.8100 O   0  0  0  0  0  0  0  0  0  0  0  0
    1.6792   -5.4260   -1.9009 N   0  0  0  0  0  0  0  0  0  0  0  0
    2.7705   -5.6233   -0.9390 C   0  0  0  0  0  0  0  0  0  0  0  0
    2.3849   -5.8371   -0.0086 H   0  0  0  0  0  0  0  0  0  0  0  0
    3.4963   -4.8133   -0.8667 H   0  0  0  0  0  0  0  0  0  0  0  0
    3.4065   -6.9259   -1.4121 C   0  0  0  0  0  0  0  0  0  0  0  0
    4.3669   -6.9664   -1.1531 H   0  0  0  0  0  0  0  0  0  0  0  0
    2.9190   -7.7126   -1.0465 H   0  0  0  0  0  0  0  0  0  0  0  0
    3.2521   -6.8364   -2.8905 C   0  0  0  0  0  0  0  0  0  0  0  0
    3.8838   -6.1763   -3.2769 H   0  0  0  0  0  0  0  0  0  0  0  0
    3.3676   -7.7251   -3.3159 H   0  0  0  0  0  0  0  0  0  0  0  0
    1.8195   -6.3549   -3.0384 C   0  0  0  0  0  0  0  0  0  0  0  0
    1.6876   -5.8786   -3.9012 H   0  0  0  0  0  0  0  0  0  0  0  0
    1.1759   -7.1101   -2.9596 H   0  0  0  0  0  0  0  0  0  0  0  0
  1  5  1  0
  5  6  2  0
  6  8  1  0
  8 10  2  0
 10 12  1  0
 12  5  1  0
  1  2  1  0
  1  3  1  0
  1  4  1  0
  6  7  1  0
  8  9  1  0
 10 11  1  0
 12 13  1  0
 14 18  1  0
 18 19  2  0
 18 20  1  0
 20 21  1  0
 21 24  1  0
 24 27  1  0
 27 30  1  0
 30 20  1  0
 14 15  1  0
 14 16  1  0
 14 17  1  0
 21 22  1  0
 21 23  1  0
 24 25  1  0
 24 26  1  0
 27 28  1  0
 27 29  1  0
 30 31  1  0
 30 32  1  0
M  CHG  1   8   1
M  END
>  <PDB_ID>  (130) 
pdb3vvl

>  <RESIDUE_NAME>  (130) 
HIP   PRO

>  <FRAG_NAME>  (130) 
MIMM   N1PA

>  <FRAG_ATOM_NUM>  (130) 
fragi: 13  fragj: 19

>  <atom.prop.CHAIN_ID>  (130) 
A A A A A A A A A A A A A Z Z Z Z Z Z Z Z Z Z Z Z Z Z Z Z Z Z Z

>  <atom.prop.IS_HEAVY_ATOM>  (130) 
1 0 0 0 1 1 0 1 0 1 0 1 0 1 0 0 0 1 1 1 1 0 0 1 0 0 1 0 0 1 0 0

>  <DIFUSE_FUNC_ATOM>  (130) 
n/a

>  <FINAL_SINGLE_POINT_ENERGY>  (130) 
0

>  <NONCOV_INTER_ENERGY_QM>  (130) 
0

>  <FF_Energy>  (130) 
-12.19

>  <QM_Energy>  (130) 
-19.74

>  <Index>  (130) 
798

$$$$
MIMM-pdb3vvl-B-HIP-58:N1PA-pdb3vvl-B-PRO-66
     RDKit          3D

 32 32  0  0  0  0  0  0  0  0999 V2000
   -0.6760    2.7385   -0.0093 C   0  0  0  0  0  0  0  0  0  0  0  0
   -1.2104    2.8852   -0.8494 H   0  0  0  0  0  0  0  0  0  0  0  0
    0.1270    3.3444   -0.0328 H   0  0  0  0  0  0  0  0  0  0  0  0
   -1.2914    3.0012    0.8511 H   0  0  0  0  0  0  0  0  0  0  0  0
   -0.1945    1.3209    0.0016 C   0  0  0  0  0  0  0  0  0  0  0  0
    1.0566    0.8015   -0.0000 C   0  0  0  0  0  0  0  0  0  0  0  0
    1.9105    1.3132    0.0009 H   0  0  0  0  0  0  0  0  0  0  0  0
    0.9276   -0.5673   -0.0014 N   0  0  0  0  0  4  0  0  0  0  0  0
    1.6854   -1.2230   -0.0039 H   0  0  0  0  0  0  0  0  0  0  0  0
   -0.3565   -0.8775   -0.0012 C   0  0  0  0  0  0  0  0  0  0  0  0
   -0.7331   -1.7993   -0.0002 H   0  0  0  0  0  0  0  0  0  0  0  0
   -1.0566    0.2441    0.0000 N   0  0  0  0  0  0  0  0  0  0  0  0
   -2.0544    0.3053   -0.0008 H   0  0  0  0  0  0  0  0  0  0  0  0
   -0.2649   -4.4100   -3.0090 C   0  0  0  0  0  0  0  0  0  0  0  0
    0.2217   -4.6141   -3.8372 H   0  0  0  0  0  0  0  0  0  0  0  0
   -0.9400   -5.2435   -2.8153 H   0  0  0  0  0  0  0  0  0  0  0  0
   -0.7795   -3.4492   -2.9917 H   0  0  0  0  0  0  0  0  0  0  0  0
    0.7389   -4.4746   -1.8679 C   0  0  0  0  0  0  0  0  0  0  0  0
    0.6652   -3.7020   -0.9096 O   0  0  0  0  0  0  0  0  0  0  0  0
    1.6852   -5.4222   -1.9559 N   0  0  0  0  0  0  0  0  0  0  0  0
    2.7395   -5.6740   -0.9733 C   0  0  0  0  0  0  0  0  0  0  0  0
    2.3194   -5.9390   -0.0663 H   0  0  0  0  0  0  0  0  0  0  0  0
    3.4730   -4.8809   -0.8279 H   0  0  0  0  0  0  0  0  0  0  0  0
    3.3691   -6.9728   -1.4758 C   0  0  0  0  0  0  0  0  0  0  0  0
    4.3287   -7.0239   -1.2099 H   0  0  0  0  0  0  0  0  0  0  0  0
    2.8758   -7.7629   -1.1215 H   0  0  0  0  0  0  0  0  0  0  0  0
    3.2207   -6.8561   -2.9445 C   0  0  0  0  0  0  0  0  0  0  0  0
    3.8659   -6.1998   -3.3203 H   0  0  0  0  0  0  0  0  0  0  0  0
    3.3299   -7.7401   -3.3876 H   0  0  0  0  0  0  0  0  0  0  0  0
    1.8034   -6.3559   -3.0919 C   0  0  0  0  0  0  0  0  0  0  0  0
    1.6752   -5.8776   -3.9540 H   0  0  0  0  0  0  0  0  0  0  0  0
    1.1456   -7.0980   -3.0072 H   0  0  0  0  0  0  0  0  0  0  0  0
  1  5  1  0
  5  6  2  0
  6  8  1  0
  8 10  2  0
 10 12  1  0
 12  5  1  0
  1  2  1  0
  1  3  1  0
  1  4  1  0
  6  7  1  0
  8  9  1  0
 10 11  1  0
 12 13  1  0
 14 18  1  0
 18 19  2  0
 18 20  1  0
 20 21  1  0
 21 24  1  0
 24 27  1  0
 27 30  1  0
 30 20  1  0
 14 15  1  0
 14 16  1  0
 14 17  1  0
 21 22  1  0
 21 23  1  0
 24 25  1  0
 24 26  1  0
 27 28  1  0
 27 29  1  0
 30 31  1  0
 30 32  1  0
M  CHG  1   8   1
M  END
>  <PDB_ID>  (131) 
pdb3vvl

>  <RESIDUE_NAME>  (131) 
HIP   PRO

>  <FRAG_NAME>  (131) 
MIMM   N1PA

>  <FRAG_ATOM_NUM>  (131) 
fragi: 13  fragj: 19

>  <atom.prop.CHAIN_ID>  (131) 
A A A A A A A A A A A A A Z Z Z Z Z Z Z Z Z Z Z Z Z Z Z Z Z Z Z

>  <atom.prop.IS_HEAVY_ATOM>  (131) 
1 0 0 0 1 1 0 1 0 1 0 1 0 1 0 0 0 1 1 1 1 0 0 1 0 0 1 0 0 1 0 0

>  <DIFUSE_FUNC_ATOM>  (131) 
n/a

>  <FINAL_SINGLE_POINT_ENERGY>  (131) 
0

>  <NONCOV_INTER_ENERGY_QM>  (131) 
0

>  <FF_Energy>  (131) 
-12.45

>  <QM_Energy>  (131) 
-19.98

>  <Index>  (131) 
800

$$$$
MIMM-pdb3wj2-D-HIP-281:N1PA-pdb3wj2-D-PRO-185
     RDKit          3D

 32 32  0  0  0  0  0  0  0  0999 V2000
   -0.7334    2.7184   -0.0900 C   0  0  0  0  0  0  0  0  0  0  0  0
   -1.4463    2.7969   -0.7867 H   0  0  0  0  0  0  0  0  0  0  0  0
    0.0199    3.3368   -0.3118 H   0  0  0  0  0  0  0  0  0  0  0  0
   -1.1497    3.0006    0.8771 H   0  0  0  0  0  0  0  0  0  0  0  0
   -0.2173    1.3186   -0.0921 C   0  0  0  0  0  0  0  0  0  0  0  0
    1.0559    0.8092    0.0000 C   0  0  0  0  0  0  0  0  0  0  0  0
    1.8929    1.3351    0.0386 H   0  0  0  0  0  0  0  0  0  0  0  0
    0.9316   -0.5564    0.0289 N   0  0  0  0  0  4  0  0  0  0  0  0
    1.6964   -1.2092    0.0425 H   0  0  0  0  0  0  0  0  0  0  0  0
   -0.3470   -0.8809    0.0353 C   0  0  0  0  0  0  0  0  0  0  0  0
   -0.7143   -1.8053    0.0631 H   0  0  0  0  0  0  0  0  0  0  0  0
   -1.0559    0.2340   -0.0000 N   0  0  0  0  0  0  0  0  0  0  0  0
   -2.0583    0.2812    0.0345 H   0  0  0  0  0  0  0  0  0  0  0  0
   -3.4914   -3.7121    2.8608 C   0  0  0  0  0  0  0  0  0  0  0  0
   -4.4355   -3.9165    2.5047 H   0  0  0  0  0  0  0  0  0  0  0  0
   -3.4837   -3.9394    3.9269 H   0  0  0  0  0  0  0  0  0  0  0  0
   -3.3853   -2.6374    2.7134 H   0  0  0  0  0  0  0  0  0  0  0  0
   -2.4949   -4.4726    2.0004 C   0  0  0  0  0  0  0  0  0  0  0  0
   -1.6427   -3.8608    1.3515 O   0  0  0  0  0  0  0  0  0  0  0  0
   -2.6972   -5.7840    1.9032 N   0  0  0  0  0  0  0  0  0  0  0  0
   -1.8627   -6.6190    1.0091 C   0  0  0  0  0  0  0  0  0  0  0  0
   -0.8765   -6.5249    1.2642 H   0  0  0  0  0  0  0  0  0  0  0  0
   -1.9958   -6.4351   -0.0570 H   0  0  0  0  0  0  0  0  0  0  0  0
   -2.3984   -8.0642    1.2887 C   0  0  0  0  0  0  0  0  0  0  0  0
   -2.4128   -8.5949    0.4451 H   0  0  0  0  0  0  0  0  0  0  0  0
   -1.8280   -8.5174    1.9671 H   0  0  0  0  0  0  0  0  0  0  0  0
   -3.8093   -7.8571    1.8205 C   0  0  0  0  0  0  0  0  0  0  0  0
   -4.4623   -7.8117    1.0710 H   0  0  0  0  0  0  0  0  0  0  0  0
   -4.0566   -8.5876    2.4486 H   0  0  0  0  0  0  0  0  0  0  0  0
   -3.7621   -6.5007    2.5710 C   0  0  0  0  0  0  0  0  0  0  0  0
   -4.6390   -6.0331    2.4820 H   0  0  0  0  0  0  0  0  0  0  0  0
   -3.5599   -6.6547    3.5381 H   0  0  0  0  0  0  0  0  0  0  0  0
  1  5  1  0
  5  6  2  0
  6  8  1  0
  8 10  2  0
 10 12  1  0
 12  5  1  0
  1  2  1  0
  1  3  1  0
  1  4  1  0
  6  7  1  0
  8  9  1  0
 10 11  1  0
 12 13  1  0
 14 18  1  0
 18 19  2  0
 18 20  1  0
 20 21  1  0
 21 24  1  0
 24 27  1  0
 27 30  1  0
 30 20  1  0
 14 15  1  0
 14 16  1  0
 14 17  1  0
 21 22  1  0
 21 23  1  0
 24 25  1  0
 24 26  1  0
 27 28  1  0
 27 29  1  0
 30 31  1  0
 30 32  1  0
M  CHG  1   8   1
M  END
>  <PDB_ID>  (132) 
pdb3wj2

>  <RESIDUE_NAME>  (132) 
HIP   PRO

>  <FRAG_NAME>  (132) 
MIMM   N1PA

>  <FRAG_ATOM_NUM>  (132) 
fragi: 13  fragj: 19

>  <atom.prop.CHAIN_ID>  (132) 
A A A A A A A A A A A A A Z Z Z Z Z Z Z Z Z Z Z Z Z Z Z Z Z Z Z

>  <atom.prop.IS_HEAVY_ATOM>  (132) 
1 0 0 0 1 1 0 1 0 1 0 1 0 1 0 0 0 1 1 1 1 0 0 1 0 0 1 0 0 1 0 0

>  <DIFUSE_FUNC_ATOM>  (132) 
n/a

>  <FINAL_SINGLE_POINT_ENERGY>  (132) 
0

>  <NONCOV_INTER_ENERGY_QM>  (132) 
0

>  <FF_Energy>  (132) 
-9.76

>  <QM_Energy>  (132) 
-15.5

>  <Index>  (132) 
807

$$$$
MIMM-pdb4y7m-D-HIP-933:N1PA-pdb4y7m-D-PRO-941
     RDKit          3D

 32 32  0  0  0  0  0  0  0  0999 V2000
   -0.5874    2.7474   -0.0206 C   0  0  0  0  0  0  0  0  0  0  0  0
    0.2458    3.3261   -0.0272 H   0  0  0  0  0  0  0  0  0  0  0  0
   -1.0733    2.9306    0.8497 H   0  0  0  0  0  0  0  0  0  0  0  0
   -1.2296    3.0628   -0.8429 H   0  0  0  0  0  0  0  0  0  0  0  0
   -0.1617    1.3075   -0.0283 C   0  0  0  0  0  0  0  0  0  0  0  0
    1.0846    0.7783   -0.0000 C   0  0  0  0  0  0  0  0  0  0  0  0
    1.9424    1.2774    0.0097 H   0  0  0  0  0  0  0  0  0  0  0  0
    0.9336   -0.5892    0.0147 N   0  0  0  0  0  4  0  0  0  0  0  0
    1.6560   -1.2626    0.0260 H   0  0  0  0  0  0  0  0  0  0  0  0
   -0.3751   -0.8406    0.0096 C   0  0  0  0  0  0  0  0  0  0  0  0
   -0.7719   -1.7732    0.0136 H   0  0  0  0  0  0  0  0  0  0  0  0
   -1.0846    0.2766    0.0000 N   0  0  0  0  0  0  0  0  0  0  0  0
   -2.0567    0.3623    0.0101 H   0  0  0  0  0  0  0  0  0  0  0  0
   -3.0543   -1.6087   -3.2332 C   0  0  0  0  0  0  0  0  0  0  0  0
   -3.6138   -2.2666   -3.7161 H   0  0  0  0  0  0  0  0  0  0  0  0
   -2.8481   -0.7731   -3.9021 H   0  0  0  0  0  0  0  0  0  0  0  0
   -2.1578   -2.1650   -2.9597 H   0  0  0  0  0  0  0  0  0  0  0  0
   -3.8881   -1.0568   -2.0553 C   0  0  0  0  0  0  0  0  0  0  0  0
   -3.4683   -0.0841   -1.4173 O   0  0  0  0  0  0  0  0  0  0  0  0
   -5.1263   -1.5643   -1.8369 N   0  0  0  0  0  0  0  0  0  0  0  0
   -6.0417   -0.9181   -0.8716 C   0  0  0  0  0  0  0  0  0  0  0  0
   -5.8170    0.1048   -0.8225 H   0  0  0  0  0  0  0  0  0  0  0  0
   -6.1463   -1.3212    0.1357 H   0  0  0  0  0  0  0  0  0  0  0  0
   -7.3971   -1.0179   -1.5823 C   0  0  0  0  0  0  0  0  0  0  0  0
   -8.1349   -1.1717   -0.9221 H   0  0  0  0  0  0  0  0  0  0  0  0
   -7.5893   -0.1836   -2.1019 H   0  0  0  0  0  0  0  0  0  0  0  0
   -7.2623   -2.2029   -2.5115 C   0  0  0  0  0  0  0  0  0  0  0  0
   -7.8443   -2.9720   -2.1739 H   0  0  0  0  0  0  0  0  0  0  0  0
   -7.6254   -1.9568   -3.4346 H   0  0  0  0  0  0  0  0  0  0  0  0
   -5.8235   -2.6183   -2.5956 C   0  0  0  0  0  0  0  0  0  0  0  0
   -5.6726   -3.5112   -2.1724 H   0  0  0  0  0  0  0  0  0  0  0  0
   -5.5007   -2.6393   -3.5430 H   0  0  0  0  0  0  0  0  0  0  0  0
  1  5  1  0
  5  6  2  0
  6  8  1  0
  8 10  2  0
 10 12  1  0
 12  5  1  0
  1  2  1  0
  1  3  1  0
  1  4  1  0
  6  7  1  0
  8  9  1  0
 10 11  1  0
 12 13  1  0
 14 18  1  0
 18 19  2  0
 18 20  1  0
 20 21  1  0
 21 24  1  0
 24 27  1  0
 27 30  1  0
 30 20  1  0
 14 15  1  0
 14 16  1  0
 14 17  1  0
 21 22  1  0
 21 23  1  0
 24 25  1  0
 24 26  1  0
 27 28  1  0
 27 29  1  0
 30 31  1  0
 30 32  1  0
M  CHG  1   8   1
M  END
>  <PDB_ID>  (133) 
pdb4y7m

>  <RESIDUE_NAME>  (133) 
HIP   PRO

>  <FRAG_NAME>  (133) 
MIMM   N1PA

>  <FRAG_ATOM_NUM>  (133) 
fragi: 13  fragj: 19

>  <atom.prop.CHAIN_ID>  (133) 
A A A A A A A A A A A A A Z Z Z Z Z Z Z Z Z Z Z Z Z Z Z Z Z Z Z

>  <atom.prop.IS_HEAVY_ATOM>  (133) 
1 0 0 0 1 1 0 1 0 1 0 1 0 1 0 0 0 1 1 1 1 0 0 1 0 0 1 0 0 1 0 0

>  <DIFUSE_FUNC_ATOM>  (133) 
n/a

>  <FINAL_SINGLE_POINT_ENERGY>  (133) 
0

>  <NONCOV_INTER_ENERGY_QM>  (133) 
0

>  <FF_Energy>  (133) 
-13.53

>  <QM_Energy>  (133) 
-20.99

>  <Index>  (133) 
814

$$$$
MIMM-pdb3zwq-A-HIP-284:N1PA-pdb3zwq-A-PRO-186
     RDKit          3D

 32 32  0  0  0  0  0  0  0  0999 V2000
   -0.6784    2.7378   -0.0154 C   0  0  0  0  0  0  0  0  0  0  0  0
   -1.4130    2.8146   -0.7008 H   0  0  0  0  0  0  0  0  0  0  0  0
    0.0858    3.3270   -0.3056 H   0  0  0  0  0  0  0  0  0  0  0  0
   -1.0522    3.0907    0.9458 H   0  0  0  0  0  0  0  0  0  0  0  0
   -0.1960    1.3185   -0.0024 C   0  0  0  0  0  0  0  0  0  0  0  0
    1.0528    0.8011   -0.0000 C   0  0  0  0  0  0  0  0  0  0  0  0
    1.9076    1.3145   -0.0034 H   0  0  0  0  0  0  0  0  0  0  0  0
    0.9274   -0.5668    0.0094 N   0  0  0  0  0  4  0  0  0  0  0  0
    1.6869   -1.2204    0.0210 H   0  0  0  0  0  0  0  0  0  0  0  0
   -0.3528   -0.8762   -0.0009 C   0  0  0  0  0  0  0  0  0  0  0  0
   -0.7314   -1.7980   -0.0070 H   0  0  0  0  0  0  0  0  0  0  0  0
   -1.0528    0.2452    0.0000 N   0  0  0  0  0  0  0  0  0  0  0  0
   -2.0525    0.3021    0.0017 H   0  0  0  0  0  0  0  0  0  0  0  0
   -4.0565   -3.0763    2.3548 C   0  0  0  0  0  0  0  0  0  0  0  0
   -4.9986   -3.0508    1.9843 H   0  0  0  0  0  0  0  0  0  0  0  0
   -4.1075   -3.4281    3.3853 H   0  0  0  0  0  0  0  0  0  0  0  0
   -3.7512   -2.0312    2.3026 H   0  0  0  0  0  0  0  0  0  0  0  0
   -3.2234   -3.9936    1.4679 C   0  0  0  0  0  0  0  0  0  0  0  0
   -2.2000   -3.5877    0.9480 O   0  0  0  0  0  0  0  0  0  0  0  0
   -3.6809   -5.2446    1.2924 N   0  0  0  0  0  0  0  0  0  0  0  0
   -2.9435   -6.2187    0.5000 C   0  0  0  0  0  0  0  0  0  0  0  0
   -1.9845   -6.2938    0.8273 H   0  0  0  0  0  0  0  0  0  0  0  0
   -2.9683   -5.9976   -0.5671 H   0  0  0  0  0  0  0  0  0  0  0  0
   -3.7082   -7.5199    0.7496 C   0  0  0  0  0  0  0  0  0  0  0  0
   -3.6633   -8.1201   -0.0454 H   0  0  0  0  0  0  0  0  0  0  0  0
   -3.3593   -7.9919    1.5538 H   0  0  0  0  0  0  0  0  0  0  0  0
   -5.1298   -7.0544    0.9823 C   0  0  0  0  0  0  0  0  0  0  0  0
   -5.5848   -6.8982    0.1063 H   0  0  0  0  0  0  0  0  0  0  0  0
   -5.6321   -7.7424    1.5038 H   0  0  0  0  0  0  0  0  0  0  0  0
   -4.9766   -5.7850    1.7548 C   0  0  0  0  0  0  0  0  0  0  0  0
   -5.7140   -5.1357    1.5544 H   0  0  0  0  0  0  0  0  0  0  0  0
   -4.9500   -5.9517    2.7449 H   0  0  0  0  0  0  0  0  0  0  0  0
  1  5  1  0
  5  6  2  0
  6  8  1  0
  8 10  2  0
 10 12  1  0
 12  5  1  0
  1  2  1  0
  1  3  1  0
  1  4  1  0
  6  7  1  0
  8  9  1  0
 10 11  1  0
 12 13  1  0
 14 18  1  0
 18 19  2  0
 18 20  1  0
 20 21  1  0
 21 24  1  0
 24 27  1  0
 27 30  1  0
 30 20  1  0
 14 15  1  0
 14 16  1  0
 14 17  1  0
 21 22  1  0
 21 23  1  0
 24 25  1  0
 24 26  1  0
 27 28  1  0
 27 29  1  0
 30 31  1  0
 30 32  1  0
M  CHG  1   8   1
M  END
>  <PDB_ID>  (134) 
pdb3zwq

>  <RESIDUE_NAME>  (134) 
HIP   PRO

>  <FRAG_NAME>  (134) 
MIMM   N1PA

>  <FRAG_ATOM_NUM>  (134) 
fragi: 13  fragj: 19

>  <atom.prop.CHAIN_ID>  (134) 
A A A A A A A A A A A A A Z Z Z Z Z Z Z Z Z Z Z Z Z Z Z Z Z Z Z

>  <atom.prop.IS_HEAVY_ATOM>  (134) 
1 0 0 0 1 1 0 1 0 1 0 1 0 1 0 0 0 1 1 1 1 0 0 1 0 0 1 0 0 1 0 0

>  <DIFUSE_FUNC_ATOM>  (134) 
n/a

>  <FINAL_SINGLE_POINT_ENERGY>  (134) 
0

>  <NONCOV_INTER_ENERGY_QM>  (134) 
0

>  <FF_Energy>  (134) 
-9.72

>  <QM_Energy>  (134) 
-15.85

>  <Index>  (134) 
825

$$$$
MIMM-pdb3zwq-B-HIP-284:N1PA-pdb3zwq-B-PRO-186
     RDKit          3D

 32 32  0  0  0  0  0  0  0  0999 V2000
   -0.6692    2.7392   -0.0092 C   0  0  0  0  0  0  0  0  0  0  0  0
   -1.3257    2.8383   -0.7686 H   0  0  0  0  0  0  0  0  0  0  0  0
    0.1228    3.3341   -0.2011 H   0  0  0  0  0  0  0  0  0  0  0  0
   -1.1429    3.0661    0.9164 H   0  0  0  0  0  0  0  0  0  0  0  0
   -0.1928    1.3203    0.0141 C   0  0  0  0  0  0  0  0  0  0  0  0
    1.0575    0.7977   -0.0000 C   0  0  0  0  0  0  0  0  0  0  0  0
    1.9125    1.3093   -0.0111 H   0  0  0  0  0  0  0  0  0  0  0  0
    0.9280   -0.5689    0.0051 N   0  0  0  0  0  4  0  0  0  0  0  0
    1.6828   -1.2262    0.0155 H   0  0  0  0  0  0  0  0  0  0  0  0
   -0.3567   -0.8747   -0.0072 C   0  0  0  0  0  0  0  0  0  0  0  0
   -0.7352   -1.7969   -0.0192 H   0  0  0  0  0  0  0  0  0  0  0  0
   -1.0575    0.2477   -0.0000 N   0  0  0  0  0  0  0  0  0  0  0  0
   -2.0539    0.3095   -0.0042 H   0  0  0  0  0  0  0  0  0  0  0  0
   -3.9442   -3.1582    2.0740 C   0  0  0  0  0  0  0  0  0  0  0  0
   -4.8650   -3.1566    1.6407 H   0  0  0  0  0  0  0  0  0  0  0  0
   -4.0606   -3.4998    3.1026 H   0  0  0  0  0  0  0  0  0  0  0  0
   -3.6320   -2.1150    2.0250 H   0  0  0  0  0  0  0  0  0  0  0  0
   -3.0241   -4.0354    1.2246 C   0  0  0  0  0  0  0  0  0  0  0  0
   -2.0064   -3.5677    0.7661 O   0  0  0  0  0  0  0  0  0  0  0  0
   -3.4039   -5.3067    0.9991 N   0  0  0  0  0  0  0  0  0  0  0  0
   -2.5731   -6.2846    0.2831 C   0  0  0  0  0  0  0  0  0  0  0  0
   -1.6470   -6.3404    0.7140 H   0  0  0  0  0  0  0  0  0  0  0  0
   -2.4851   -6.1055   -0.7885 H   0  0  0  0  0  0  0  0  0  0  0  0
   -3.3482   -7.5876    0.4822 C   0  0  0  0  0  0  0  0  0  0  0  0
   -3.2152   -8.2043   -0.2901 H   0  0  0  0  0  0  0  0  0  0  0  0
   -3.0783   -8.0396    1.3285 H   0  0  0  0  0  0  0  0  0  0  0  0
   -4.7876   -7.1338    0.5583 C   0  0  0  0  0  0  0  0  0  0  0  0
   -5.1522   -7.0029   -0.3660 H   0  0  0  0  0  0  0  0  0  0  0  0
   -5.3369   -7.8254    1.0327 H   0  0  0  0  0  0  0  0  0  0  0  0
   -4.7369   -5.8575    1.3150 C   0  0  0  0  0  0  0  0  0  0  0  0
   -5.4529   -5.2174    1.0213 H   0  0  0  0  0  0  0  0  0  0  0  0
   -4.8241   -6.0033    2.3069 H   0  0  0  0  0  0  0  0  0  0  0  0
  1  5  1  0
  5  6  2  0
  6  8  1  0
  8 10  2  0
 10 12  1  0
 12  5  1  0
  1  2  1  0
  1  3  1  0
  1  4  1  0
  6  7  1  0
  8  9  1  0
 10 11  1  0
 12 13  1  0
 14 18  1  0
 18 19  2  0
 18 20  1  0
 20 21  1  0
 21 24  1  0
 24 27  1  0
 27 30  1  0
 30 20  1  0
 14 15  1  0
 14 16  1  0
 14 17  1  0
 21 22  1  0
 21 23  1  0
 24 25  1  0
 24 26  1  0
 27 28  1  0
 27 29  1  0
 30 31  1  0
 30 32  1  0
M  CHG  1   8   1
M  END
>  <PDB_ID>  (135) 
pdb3zwq

>  <RESIDUE_NAME>  (135) 
HIP   PRO

>  <FRAG_NAME>  (135) 
MIMM   N1PA

>  <FRAG_ATOM_NUM>  (135) 
fragi: 13  fragj: 19

>  <atom.prop.CHAIN_ID>  (135) 
A A A A A A A A A A A A A Z Z Z Z Z Z Z Z Z Z Z Z Z Z Z Z Z Z Z

>  <atom.prop.IS_HEAVY_ATOM>  (135) 
1 0 0 0 1 1 0 1 0 1 0 1 0 1 0 0 0 1 1 1 1 0 0 1 0 0 1 0 0 1 0 0

>  <DIFUSE_FUNC_ATOM>  (135) 
n/a

>  <FINAL_SINGLE_POINT_ENERGY>  (135) 
0

>  <NONCOV_INTER_ENERGY_QM>  (135) 
0

>  <FF_Energy>  (135) 
-9.62

>  <QM_Energy>  (135) 
-16.9

>  <Index>  (135) 
826

$$$$
MIMM-pdb4z29-B-HIP-195:N1PA-pdb4z29-B-PRO-192
     RDKit          3D

 32 32  0  0  0  0  0  0  0  0999 V2000
   -0.6789    2.7221    0.0398 C   0  0  0  0  0  0  0  0  0  0  0  0
    0.0490    3.3035    0.4195 H   0  0  0  0  0  0  0  0  0  0  0  0
   -1.4791    2.7763    0.6469 H   0  0  0  0  0  0  0  0  0  0  0  0
   -0.9482    3.0710   -0.9571 H   0  0  0  0  0  0  0  0  0  0  0  0
   -0.1942    1.3157    0.0414 C   0  0  0  0  0  0  0  0  0  0  0  0
    1.0544    0.8028    0.0000 C   0  0  0  0  0  0  0  0  0  0  0  0
    1.9084    1.3156   -0.0116 H   0  0  0  0  0  0  0  0  0  0  0  0
    0.9263   -0.5647   -0.0215 N   0  0  0  0  0  4  0  0  0  0  0  0
    1.6845   -1.2201   -0.0398 H   0  0  0  0  0  0  0  0  0  0  0  0
   -0.3569   -0.8756   -0.0154 C   0  0  0  0  0  0  0  0  0  0  0  0
   -0.7321   -1.7978   -0.0199 H   0  0  0  0  0  0  0  0  0  0  0  0
   -1.0544    0.2440    0.0000 N   0  0  0  0  0  0  0  0  0  0  0  0
   -2.0529    0.3062   -0.0166 H   0  0  0  0  0  0  0  0  0  0  0  0
    2.3516   -4.2596    1.3287 C   0  0  0  0  0  0  0  0  0  0  0  0
    2.9225   -4.9916    1.6971 H   0  0  0  0  0  0  0  0  0  0  0  0
    1.9546   -3.6764    2.1595 H   0  0  0  0  0  0  0  0  0  0  0  0
    1.5678   -4.6519    0.6806 H   0  0  0  0  0  0  0  0  0  0  0  0
    3.2202   -3.3560    0.4674 C   0  0  0  0  0  0  0  0  0  0  0  0
    2.8969   -2.1926    0.2987 O   0  0  0  0  0  0  0  0  0  0  0  0
    4.3214   -3.8885   -0.0895 N   0  0  0  0  0  0  0  0  0  0  0  0
    5.2000   -3.1050   -0.9478 C   0  0  0  0  0  0  0  0  0  0  0  0
    5.6991   -2.4027   -0.4123 H   0  0  0  0  0  0  0  0  0  0  0  0
    4.6718   -2.6361   -1.7781 H   0  0  0  0  0  0  0  0  0  0  0  0
    6.2048   -4.1454   -1.4482 C   0  0  0  0  0  0  0  0  0  0  0  0
    5.8794   -4.5755   -2.2906 H   0  0  0  0  0  0  0  0  0  0  0  0
    7.0969   -3.7270   -1.6111 H   0  0  0  0  0  0  0  0  0  0  0  0
    6.2751   -5.1400   -0.3320 C   0  0  0  0  0  0  0  0  0  0  0  0
    6.6195   -6.0126   -0.6628 H   0  0  0  0  0  0  0  0  0  0  0  0
    6.8504   -4.7981    0.4032 H   0  0  0  0  0  0  0  0  0  0  0  0
    4.8459   -5.2475    0.0995 C   0  0  0  0  0  0  0  0  0  0  0  0
    4.3376   -5.9016   -0.4661 H   0  0  0  0  0  0  0  0  0  0  0  0
    4.7702   -5.5231    1.0621 H   0  0  0  0  0  0  0  0  0  0  0  0
  1  5  1  0
  5  6  2  0
  6  8  1  0
  8 10  2  0
 10 12  1  0
 12  5  1  0
  1  2  1  0
  1  3  1  0
  1  4  1  0
  6  7  1  0
  8  9  1  0
 10 11  1  0
 12 13  1  0
 14 18  1  0
 18 19  2  0
 18 20  1  0
 20 21  1  0
 21 24  1  0
 24 27  1  0
 27 30  1  0
 30 20  1  0
 14 15  1  0
 14 16  1  0
 14 17  1  0
 21 22  1  0
 21 23  1  0
 24 25  1  0
 24 26  1  0
 27 28  1  0
 27 29  1  0
 30 31  1  0
 30 32  1  0
M  CHG  1   8   1
M  END
>  <PDB_ID>  (136) 
pdb4z29

>  <RESIDUE_NAME>  (136) 
HIP   PRO

>  <FRAG_NAME>  (136) 
MIMM   N1PA

>  <FRAG_ATOM_NUM>  (136) 
fragi: 13  fragj: 19

>  <atom.prop.CHAIN_ID>  (136) 
A A A A A A A A A A A A A Z Z Z Z Z Z Z Z Z Z Z Z Z Z Z Z Z Z Z

>  <atom.prop.IS_HEAVY_ATOM>  (136) 
1 0 0 0 1 1 0 1 0 1 0 1 0 1 0 0 0 1 1 1 1 0 0 1 0 0 1 0 0 1 0 0

>  <DIFUSE_FUNC_ATOM>  (136) 
n/a

>  <FINAL_SINGLE_POINT_ENERGY>  (136) 
0

>  <NONCOV_INTER_ENERGY_QM>  (136) 
0

>  <FF_Energy>  (136) 
-16.8

>  <QM_Energy>  (136) 
-25.8

>  <Index>  (136) 
828

$$$$
MIMM-pdb6aef-B-HIP-109:N1PA-pdb6aef-B-PRO-34
     RDKit          3D

 32 32  0  0  0  0  0  0  0  0999 V2000
   -0.6528    2.7331   -0.0128 C   0  0  0  0  0  0  0  0  0  0  0  0
   -0.1295    3.2184    0.6436 H   0  0  0  0  0  0  0  0  0  0  0  0
   -1.5881    2.7398    0.2433 H   0  0  0  0  0  0  0  0  0  0  0  0
   -0.5508    3.2281   -0.9786 H   0  0  0  0  0  0  0  0  0  0  0  0
   -0.1875    1.3106   -0.0036 C   0  0  0  0  0  0  0  0  0  0  0  0
    1.0583    0.7798   -0.0000 C   0  0  0  0  0  0  0  0  0  0  0  0
    1.8600    1.2519   -0.0048 H   0  0  0  0  0  0  0  0  0  0  0  0
    0.9172   -0.5876   -0.0026 N   0  0  0  0  0  4  0  0  0  0  0  0
    1.5625   -1.1568    0.0034 H   0  0  0  0  0  0  0  0  0  0  0  0
   -0.3698   -0.8860    0.0040 C   0  0  0  0  0  0  0  0  0  0  0  0
   -0.7297   -1.7441    0.0061 H   0  0  0  0  0  0  0  0  0  0  0  0
   -1.0583    0.2414   -0.0000 N   0  0  0  0  0  0  0  0  0  0  0  0
   -1.9171    0.2996   -0.0016 H   0  0  0  0  0  0  0  0  0  0  0  0
   -5.3561    2.2605    1.3112 C   0  0  0  0  0  0  0  0  0  0  0  0
   -6.2734    2.4923    1.0965 H   0  0  0  0  0  0  0  0  0  0  0  0
   -5.3300    1.7339    2.2651 H   0  0  0  0  0  0  0  0  0  0  0  0
   -4.7723    3.1797    1.3605 H   0  0  0  0  0  0  0  0  0  0  0  0
   -4.8101    1.3633    0.1993 C   0  0  0  0  0  0  0  0  0  0  0  0
   -3.8249    0.6498    0.4038 O   0  0  0  0  0  0  0  0  0  0  0  0
   -5.3918    1.4062   -0.9951 N   0  0  0  0  0  0  0  0  0  0  0  0
   -4.9612    0.4976   -2.0596 C   0  0  0  0  0  0  0  0  0  0  0  0
   -4.8776   -0.4093   -1.7269 H   0  0  0  0  0  0  0  0  0  0  0  0
   -4.0202    0.8166   -2.5077 H   0  0  0  0  0  0  0  0  0  0  0  0
   -6.1050    0.5748   -3.0735 C   0  0  0  0  0  0  0  0  0  0  0  0
   -5.7628    0.4371   -3.9702 H   0  0  0  0  0  0  0  0  0  0  0  0
   -6.7854   -0.0823   -2.8554 H   0  0  0  0  0  0  0  0  0  0  0  0
   -6.6327    1.9670   -2.9100 C   0  0  0  0  0  0  0  0  0  0  0  0
   -6.1018    2.5811   -3.4405 H   0  0  0  0  0  0  0  0  0  0  0  0
   -7.5639    1.9973   -3.1806 H   0  0  0  0  0  0  0  0  0  0  0  0
   -6.4947    2.2791   -1.4325 C   0  0  0  0  0  0  0  0  0  0  0  0
   -6.2576    3.2114   -1.3051 H   0  0  0  0  0  0  0  0  0  0  0  0
   -7.3120    2.0523   -0.9615 H   0  0  0  0  0  0  0  0  0  0  0  0
  1  5  1  0
  5  6  2  0
  6  8  1  0
  8 10  2  0
 10 12  1  0
 12  5  1  0
  1  2  1  0
  1  3  1  0
  1  4  1  0
  6  7  1  0
  8  9  1  0
 10 11  1  0
 12 13  1  0
 14 18  1  0
 18 19  2  0
 18 20  1  0
 20 21  1  0
 21 24  1  0
 24 27  1  0
 27 30  1  0
 30 20  1  0
 14 15  1  0
 14 16  1  0
 14 17  1  0
 21 22  1  0
 21 23  1  0
 24 25  1  0
 24 26  1  0
 27 28  1  0
 27 29  1  0
 30 31  1  0
 30 32  1  0
M  CHG  1   8   1
M  END
>  <PDB_ID>  (137) 
pdb6aef

>  <RESIDUE_NAME>  (137) 
HIP   PRO

>  <FRAG_NAME>  (137) 
MIMM   N1PA

>  <FRAG_ATOM_NUM>  (137) 
fragi: 13  fragj: 19

>  <atom.prop.CHAIN_ID>  (137) 
A A A A A A A A A A A A A Z Z Z Z Z Z Z Z Z Z Z Z Z Z Z Z Z Z Z

>  <atom.prop.IS_HEAVY_ATOM>  (137) 
1 0 0 0 1 1 0 1 0 1 0 1 0 1 0 0 0 1 1 1 1 0 0 1 0 0 1 0 0 1 0 0

>  <DIFUSE_FUNC_ATOM>  (137) 
n/a

>  <FINAL_SINGLE_POINT_ENERGY>  (137) 
0

>  <NONCOV_INTER_ENERGY_QM>  (137) 
0

>  <FF_Energy>  (137) 
-15.63

>  <QM_Energy>  (137) 
-23.51

>  <Index>  (137) 
854

$$$$
MIMM-pdb6ar7-A-HIP-157:N1PA-pdb6ar7-A-PRO-210
     RDKit          3D

 32 32  0  0  0  0  0  0  0  0999 V2000
   -0.6744    2.7363    0.0042 C   0  0  0  0  0  0  0  0  0  0  0  0
   -1.4103    2.8247   -0.6767 H   0  0  0  0  0  0  0  0  0  0  0  0
    0.0886    3.3317   -0.2726 H   0  0  0  0  0  0  0  0  0  0  0  0
   -1.0487    3.0737    0.9707 H   0  0  0  0  0  0  0  0  0  0  0  0
   -0.1938    1.3210    0.0018 C   0  0  0  0  0  0  0  0  0  0  0  0
    1.0561    0.8021   -0.0000 C   0  0  0  0  0  0  0  0  0  0  0  0
    1.9114    1.3129    0.0006 H   0  0  0  0  0  0  0  0  0  0  0  0
    0.9266   -0.5672   -0.0012 N   0  0  0  0  0  4  0  0  0  0  0  0
    1.6850   -1.2223   -0.0028 H   0  0  0  0  0  0  0  0  0  0  0  0
   -0.3567   -0.8784   -0.0010 C   0  0  0  0  0  0  0  0  0  0  0  0
   -0.7328   -1.7997   -0.0006 H   0  0  0  0  0  0  0  0  0  0  0  0
   -1.0561    0.2437    0.0000 N   0  0  0  0  0  0  0  0  0  0  0  0
   -2.0535    0.3050   -0.0008 H   0  0  0  0  0  0  0  0  0  0  0  0
   -0.7322   -4.9911    3.2840 C   0  0  0  0  0  0  0  0  0  0  0  0
   -0.2851   -5.4710    2.5004 H   0  0  0  0  0  0  0  0  0  0  0  0
   -0.2950   -5.3709    4.2074 H   0  0  0  0  0  0  0  0  0  0  0  0
   -1.7925   -5.2371    3.2277 H   0  0  0  0  0  0  0  0  0  0  0  0
   -0.5707   -3.4926    3.0767 C   0  0  0  0  0  0  0  0  0  0  0  0
   -0.2193   -3.1001    1.9501 O   0  0  0  0  0  0  0  0  0  0  0  0
   -0.7674   -2.6172    4.0763 N   0  0  0  0  0  0  0  0  0  0  0  0
   -0.5911   -1.1790    3.8229 C   0  0  0  0  0  0  0  0  0  0  0  0
   -1.1568   -0.8928    3.0222 H   0  0  0  0  0  0  0  0  0  0  0  0
    0.4470   -0.8744    3.6891 H   0  0  0  0  0  0  0  0  0  0  0  0
   -1.1783   -0.5169    5.0823 C   0  0  0  0  0  0  0  0  0  0  0  0
   -0.4353   -0.1345    5.6508 H   0  0  0  0  0  0  0  0  0  0  0  0
   -1.7897    0.2436    4.8211 H   0  0  0  0  0  0  0  0  0  0  0  0
   -1.9131   -1.5791    5.7992 C   0  0  0  0  0  0  0  0  0  0  0  0
   -1.8981   -1.4156    6.7959 H   0  0  0  0  0  0  0  0  0  0  0  0
   -2.8782   -1.6079    5.5039 H   0  0  0  0  0  0  0  0  0  0  0  0
   -1.2146   -2.8569    5.4598 C   0  0  0  0  0  0  0  0  0  0  0  0
   -0.4317   -3.0201    6.0557 H   0  0  0  0  0  0  0  0  0  0  0  0
   -1.8347   -3.6393    5.4953 H   0  0  0  0  0  0  0  0  0  0  0  0
  1  5  1  0
  5  6  2  0
  6  8  1  0
  8 10  2  0
 10 12  1  0
 12  5  1  0
  1  2  1  0
  1  3  1  0
  1  4  1  0
  6  7  1  0
  8  9  1  0
 10 11  1  0
 12 13  1  0
 14 18  1  0
 18 19  2  0
 18 20  1  0
 20 21  1  0
 21 24  1  0
 24 27  1  0
 27 30  1  0
 30 20  1  0
 14 15  1  0
 14 16  1  0
 14 17  1  0
 21 22  1  0
 21 23  1  0
 24 25  1  0
 24 26  1  0
 27 28  1  0
 27 29  1  0
 30 31  1  0
 30 32  1  0
M  CHG  1   8   1
M  END
>  <PDB_ID>  (138) 
pdb6ar7

>  <RESIDUE_NAME>  (138) 
HIP   PRO

>  <FRAG_NAME>  (138) 
MIMM   N1PA

>  <FRAG_ATOM_NUM>  (138) 
fragi: 13  fragj: 19

>  <atom.prop.CHAIN_ID>  (138) 
A A A A A A A A A A A A A Z Z Z Z Z Z Z Z Z Z Z Z Z Z Z Z Z Z Z

>  <atom.prop.IS_HEAVY_ATOM>  (138) 
1 0 0 0 1 1 0 1 0 1 0 1 0 1 0 0 0 1 1 1 1 0 0 1 0 0 1 0 0 1 0 0

>  <DIFUSE_FUNC_ATOM>  (138) 
n/a

>  <FINAL_SINGLE_POINT_ENERGY>  (138) 
0

>  <NONCOV_INTER_ENERGY_QM>  (138) 
0

>  <FF_Energy>  (138) 
-11.42

>  <QM_Energy>  (138) 
-17.52

>  <Index>  (138) 
855

$$$$
MIMM-pdb5ayd-A-HIP-78:N1PA-pdb5ayd-A-PRO-92
     RDKit          3D

 32 32  0  0  0  0  0  0  0  0999 V2000
   -0.6763    2.7447    0.0152 C   0  0  0  0  0  0  0  0  0  0  0  0
   -0.6384    3.0790    0.9636 H   0  0  0  0  0  0  0  0  0  0  0  0
   -1.6358    2.7539   -0.2872 H   0  0  0  0  0  0  0  0  0  0  0  0
   -0.1019    3.4195   -0.6194 H   0  0  0  0  0  0  0  0  0  0  0  0
   -0.1919    1.3209   -0.0022 C   0  0  0  0  0  0  0  0  0  0  0  0
    1.0549    0.8028   -0.0000 C   0  0  0  0  0  0  0  0  0  0  0  0
    1.9114    1.3110    0.0040 H   0  0  0  0  0  0  0  0  0  0  0  0
    0.9263   -0.5698   -0.0028 N   0  0  0  0  0  4  0  0  0  0  0  0
    1.6846   -1.2225   -0.0082 H   0  0  0  0  0  0  0  0  0  0  0  0
   -0.3550   -0.8753    0.0008 C   0  0  0  0  0  0  0  0  0  0  0  0
   -0.7344   -1.7983    0.0050 H   0  0  0  0  0  0  0  0  0  0  0  0
   -1.0549    0.2444   -0.0000 N   0  0  0  0  0  0  0  0  0  0  0  0
   -2.0526    0.3067   -0.0002 H   0  0  0  0  0  0  0  0  0  0  0  0
   -5.4729    1.8986   -1.5699 C   0  0  0  0  0  0  0  0  0  0  0  0
   -6.4154    1.6414   -1.8046 H   0  0  0  0  0  0  0  0  0  0  0  0
   -5.5310    2.6709   -0.8029 H   0  0  0  0  0  0  0  0  0  0  0  0
   -4.9391    2.2455   -2.4546 H   0  0  0  0  0  0  0  0  0  0  0  0
   -4.7910    0.6496   -1.0257 C   0  0  0  0  0  0  0  0  0  0  0  0
   -3.7703    0.7467   -0.3440 O   0  0  0  0  0  0  0  0  0  0  0  0
   -5.3489   -0.5322   -1.3347 N   0  0  0  0  0  0  0  0  0  0  0  0
   -4.8156   -1.7915   -0.8114 C   0  0  0  0  0  0  0  0  0  0  0  0
   -4.7844   -1.7733    0.1975 H   0  0  0  0  0  0  0  0  0  0  0  0
   -3.8314   -2.0139   -1.2237 H   0  0  0  0  0  0  0  0  0  0  0  0
   -5.8405   -2.8369   -1.2748 C   0  0  0  0  0  0  0  0  0  0  0  0
   -5.4416   -3.4425   -1.9710 H   0  0  0  0  0  0  0  0  0  0  0  0
   -6.1519   -3.3982   -0.5021 H   0  0  0  0  0  0  0  0  0  0  0  0
   -6.9942   -2.0503   -1.8565 C   0  0  0  0  0  0  0  0  0  0  0  0
   -7.4070   -2.5667   -2.6174 H   0  0  0  0  0  0  0  0  0  0  0  0
   -7.7002   -1.9117   -1.1505 H   0  0  0  0  0  0  0  0  0  0  0  0
   -6.4200   -0.7623   -2.3169 C   0  0  0  0  0  0  0  0  0  0  0  0
   -6.0391   -0.8286   -3.2368 H   0  0  0  0  0  0  0  0  0  0  0  0
   -7.0878   -0.0200   -2.2832 H   0  0  0  0  0  0  0  0  0  0  0  0
  1  5  1  0
  5  6  2  0
  6  8  1  0
  8 10  2  0
 10 12  1  0
 12  5  1  0
  1  2  1  0
  1  3  1  0
  1  4  1  0
  6  7  1  0
  8  9  1  0
 10 11  1  0
 12 13  1  0
 14 18  1  0
 18 19  2  0
 18 20  1  0
 20 21  1  0
 21 24  1  0
 24 27  1  0
 27 30  1  0
 30 20  1  0
 14 15  1  0
 14 16  1  0
 14 17  1  0
 21 22  1  0
 21 23  1  0
 24 25  1  0
 24 26  1  0
 27 28  1  0
 27 29  1  0
 30 31  1  0
 30 32  1  0
M  CHG  1   8   1
M  END
>  <PDB_ID>  (139) 
pdb5ayd

>  <RESIDUE_NAME>  (139) 
HIP   PRO

>  <FRAG_NAME>  (139) 
MIMM   N1PA

>  <FRAG_ATOM_NUM>  (139) 
fragi: 13  fragj: 19

>  <atom.prop.CHAIN_ID>  (139) 
A A A A A A A A A A A A A Z Z Z Z Z Z Z Z Z Z Z Z Z Z Z Z Z Z Z

>  <atom.prop.IS_HEAVY_ATOM>  (139) 
1 0 0 0 1 1 0 1 0 1 0 1 0 1 0 0 0 1 1 1 1 0 0 1 0 0 1 0 0 1 0 0

>  <DIFUSE_FUNC_ATOM>  (139) 
n/a

>  <FINAL_SINGLE_POINT_ENERGY>  (139) 
0

>  <NONCOV_INTER_ENERGY_QM>  (139) 
0

>  <FF_Energy>  (139) 
-17.72

>  <QM_Energy>  (139) 
-26.23

>  <Index>  (139) 
859

$$$$
MIMM-pdb5ayd-B-HIP-78:N1PA-pdb5ayd-B-PRO-92
     RDKit          3D

 32 32  0  0  0  0  0  0  0  0999 V2000
   -0.6807    2.7380    0.0072 C   0  0  0  0  0  0  0  0  0  0  0  0
   -0.4935    3.1287    0.9180 H   0  0  0  0  0  0  0  0  0  0  0  0
   -1.6802    2.7331   -0.1307 H   0  0  0  0  0  0  0  0  0  0  0  0
   -0.2294    3.3825   -0.7473 H   0  0  0  0  0  0  0  0  0  0  0  0
   -0.1951    1.3221   -0.0090 C   0  0  0  0  0  0  0  0  0  0  0  0
    1.0571    0.8016   -0.0000 C   0  0  0  0  0  0  0  0  0  0  0  0
    1.9112    1.3135    0.0058 H   0  0  0  0  0  0  0  0  0  0  0  0
    0.9280   -0.5672    0.0010 N   0  0  0  0  0  4  0  0  0  0  0  0
    1.6846   -1.2234   -0.0003 H   0  0  0  0  0  0  0  0  0  0  0  0
   -0.3578   -0.8778    0.0030 C   0  0  0  0  0  0  0  0  0  0  0  0
   -0.7329   -1.7997    0.0080 H   0  0  0  0  0  0  0  0  0  0  0  0
   -1.0571    0.2432    0.0000 N   0  0  0  0  0  0  0  0  0  0  0  0
   -2.0548    0.3047    0.0027 H   0  0  0  0  0  0  0  0  0  0  0  0
   -5.5442    1.6298   -1.1914 C   0  0  0  0  0  0  0  0  0  0  0  0
   -6.4908    1.3583   -1.3757 H   0  0  0  0  0  0  0  0  0  0  0  0
   -5.5762    2.4450   -0.4684 H   0  0  0  0  0  0  0  0  0  0  0  0
   -5.0354    1.9239   -2.1094 H   0  0  0  0  0  0  0  0  0  0  0  0
   -4.8469    0.4278   -0.5740 C   0  0  0  0  0  0  0  0  0  0  0  0
   -3.8215    0.5818    0.0930 O   0  0  0  0  0  0  0  0  0  0  0  0
   -5.4165   -0.7707   -0.7745 N   0  0  0  0  0  0  0  0  0  0  0  0
   -4.8255   -2.0101   -0.2437 C   0  0  0  0  0  0  0  0  0  0  0  0
   -4.7437   -1.9594    0.7617 H   0  0  0  0  0  0  0  0  0  0  0  0
   -3.8602   -2.2265   -0.7015 H   0  0  0  0  0  0  0  0  0  0  0  0
   -5.8485   -3.1028   -0.6193 C   0  0  0  0  0  0  0  0  0  0  0  0
   -5.4770   -3.6977   -1.3426 H   0  0  0  0  0  0  0  0  0  0  0  0
   -6.0638   -3.6733    0.1814 H   0  0  0  0  0  0  0  0  0  0  0  0
   -7.0762   -2.3782   -1.1040 C   0  0  0  0  0  0  0  0  0  0  0  0
   -7.5102   -2.8936   -1.8575 H   0  0  0  0  0  0  0  0  0  0  0  0
   -7.7502   -2.2979   -0.3561 H   0  0  0  0  0  0  0  0  0  0  0  0
   -6.6311   -1.0147   -1.5740 C   0  0  0  0  0  0  0  0  0  0  0  0
   -6.4156   -1.0178   -2.5476 H   0  0  0  0  0  0  0  0  0  0  0  0
   -7.3226   -0.3198   -1.3842 H   0  0  0  0  0  0  0  0  0  0  0  0
  1  5  1  0
  5  6  2  0
  6  8  1  0
  8 10  2  0
 10 12  1  0
 12  5  1  0
  1  2  1  0
  1  3  1  0
  1  4  1  0
  6  7  1  0
  8  9  1  0
 10 11  1  0
 12 13  1  0
 14 18  1  0
 18 19  2  0
 18 20  1  0
 20 21  1  0
 21 24  1  0
 24 27  1  0
 27 30  1  0
 30 20  1  0
 14 15  1  0
 14 16  1  0
 14 17  1  0
 21 22  1  0
 21 23  1  0
 24 25  1  0
 24 26  1  0
 27 28  1  0
 27 29  1  0
 30 31  1  0
 30 32  1  0
M  CHG  1   8   1
M  END
>  <PDB_ID>  (140) 
pdb5ayd

>  <RESIDUE_NAME>  (140) 
HIP   PRO

>  <FRAG_NAME>  (140) 
MIMM   N1PA

>  <FRAG_ATOM_NUM>  (140) 
fragi: 13  fragj: 19

>  <atom.prop.CHAIN_ID>  (140) 
A A A A A A A A A A A A A Z Z Z Z Z Z Z Z Z Z Z Z Z Z Z Z Z Z Z

>  <atom.prop.IS_HEAVY_ATOM>  (140) 
1 0 0 0 1 1 0 1 0 1 0 1 0 1 0 0 0 1 1 1 1 0 0 1 0 0 1 0 0 1 0 0

>  <DIFUSE_FUNC_ATOM>  (140) 
n/a

>  <FINAL_SINGLE_POINT_ENERGY>  (140) 
0

>  <NONCOV_INTER_ENERGY_QM>  (140) 
0

>  <FF_Energy>  (140) 
-17.45

>  <QM_Energy>  (140) 
-26.24

>  <Index>  (140) 
860

$$$$
MIMM-pdb5ayd-C-HIP-78:N1PA-pdb5ayd-C-PRO-92
     RDKit          3D

 32 32  0  0  0  0  0  0  0  0999 V2000
   -0.6827    2.7451    0.0049 C   0  0  0  0  0  0  0  0  0  0  0  0
   -0.5698    3.1009    0.9427 H   0  0  0  0  0  0  0  0  0  0  0  0
   -1.6694    2.7405   -0.2098 H   0  0  0  0  0  0  0  0  0  0  0  0
   -0.1766    3.4163   -0.6889 H   0  0  0  0  0  0  0  0  0  0  0  0
   -0.1923    1.3233   -0.0191 C   0  0  0  0  0  0  0  0  0  0  0  0
    1.0559    0.8023    0.0000 C   0  0  0  0  0  0  0  0  0  0  0  0
    1.9121    1.3115    0.0047 H   0  0  0  0  0  0  0  0  0  0  0  0
    0.9275   -0.5704    0.0134 N   0  0  0  0  0  4  0  0  0  0  0  0
    1.6838   -1.2235    0.0259 H   0  0  0  0  0  0  0  0  0  0  0  0
   -0.3581   -0.8775    0.0056 C   0  0  0  0  0  0  0  0  0  0  0  0
   -0.7351   -1.7997    0.0058 H   0  0  0  0  0  0  0  0  0  0  0  0
   -1.0559    0.2444   -0.0000 N   0  0  0  0  0  0  0  0  0  0  0  0
   -2.0532    0.3077    0.0080 H   0  0  0  0  0  0  0  0  0  0  0  0
   -5.5218    1.9910   -0.8180 C   0  0  0  0  0  0  0  0  0  0  0  0
   -6.4810    1.7359   -1.0044 H   0  0  0  0  0  0  0  0  0  0  0  0
   -5.5386    2.7804   -0.0666 H   0  0  0  0  0  0  0  0  0  0  0  0
   -5.0366    2.3386   -1.7301 H   0  0  0  0  0  0  0  0  0  0  0  0
   -4.8194    0.7351   -0.3097 C   0  0  0  0  0  0  0  0  0  0  0  0
   -3.7653    0.8121    0.3240 O   0  0  0  0  0  0  0  0  0  0  0  0
   -5.4041   -0.4349   -0.5824 N   0  0  0  0  0  0  0  0  0  0  0  0
   -4.8308   -1.6988   -0.1126 C   0  0  0  0  0  0  0  0  0  0  0  0
   -4.6484   -1.6569    0.8821 H   0  0  0  0  0  0  0  0  0  0  0  0
   -3.9283   -1.9673   -0.6615 H   0  0  0  0  0  0  0  0  0  0  0  0
   -5.9365   -2.7296   -0.3912 C   0  0  0  0  0  0  0  0  0  0  0  0
   -5.6467   -3.3722   -1.1116 H   0  0  0  0  0  0  0  0  0  0  0  0
   -6.1418   -3.2605    0.4401 H   0  0  0  0  0  0  0  0  0  0  0  0
   -7.1357   -1.9431   -0.8310 C   0  0  0  0  0  0  0  0  0  0  0  0
   -7.6395   -2.4526   -1.5486 H   0  0  0  0  0  0  0  0  0  0  0  0
   -7.7716   -1.8175   -0.0503 H   0  0  0  0  0  0  0  0  0  0  0  0
   -6.6458   -0.6353   -1.3427 C   0  0  0  0  0  0  0  0  0  0  0  0
   -6.4529   -0.6669   -2.3235 H   0  0  0  0  0  0  0  0  0  0  0  0
   -7.2939    0.1057   -1.1562 H   0  0  0  0  0  0  0  0  0  0  0  0
  1  5  1  0
  5  6  2  0
  6  8  1  0
  8 10  2  0
 10 12  1  0
 12  5  1  0
  1  2  1  0
  1  3  1  0
  1  4  1  0
  6  7  1  0
  8  9  1  0
 10 11  1  0
 12 13  1  0
 14 18  1  0
 18 19  2  0
 18 20  1  0
 20 21  1  0
 21 24  1  0
 24 27  1  0
 27 30  1  0
 30 20  1  0
 14 15  1  0
 14 16  1  0
 14 17  1  0
 21 22  1  0
 21 23  1  0
 24 25  1  0
 24 26  1  0
 27 28  1  0
 27 29  1  0
 30 31  1  0
 30 32  1  0
M  CHG  1   8   1
M  END
>  <PDB_ID>  (141) 
pdb5ayd

>  <RESIDUE_NAME>  (141) 
HIP   PRO

>  <FRAG_NAME>  (141) 
MIMM   N1PA

>  <FRAG_ATOM_NUM>  (141) 
fragi: 13  fragj: 19

>  <atom.prop.CHAIN_ID>  (141) 
A A A A A A A A A A A A A Z Z Z Z Z Z Z Z Z Z Z Z Z Z Z Z Z Z Z

>  <atom.prop.IS_HEAVY_ATOM>  (141) 
1 0 0 0 1 1 0 1 0 1 0 1 0 1 0 0 0 1 1 1 1 0 0 1 0 0 1 0 0 1 0 0

>  <DIFUSE_FUNC_ATOM>  (141) 
n/a

>  <FINAL_SINGLE_POINT_ENERGY>  (141) 
0

>  <NONCOV_INTER_ENERGY_QM>  (141) 
0

>  <FF_Energy>  (141) 
-16.9

>  <QM_Energy>  (141) 
-25.89

>  <Index>  (141) 
861

$$$$
MIMM-pdb5ayd-D-HIP-78:N1PA-pdb5ayd-D-PRO-92
     RDKit          3D

 32 32  0  0  0  0  0  0  0  0999 V2000
   -0.6844    2.7413   -0.0100 C   0  0  0  0  0  0  0  0  0  0  0  0
   -0.7205    3.0593    0.9465 H   0  0  0  0  0  0  0  0  0  0  0  0
   -1.6224    2.7544   -0.3809 H   0  0  0  0  0  0  0  0  0  0  0  0
   -0.0689    3.4315   -0.5870 H   0  0  0  0  0  0  0  0  0  0  0  0
   -0.1977    1.3218   -0.0152 C   0  0  0  0  0  0  0  0  0  0  0  0
    1.0557    0.7995    0.0000 C   0  0  0  0  0  0  0  0  0  0  0  0
    1.9090    1.3146    0.0089 H   0  0  0  0  0  0  0  0  0  0  0  0
    0.9284   -0.5659    0.0021 N   0  0  0  0  0  4  0  0  0  0  0  0
    1.6858   -1.2226    0.0001 H   0  0  0  0  0  0  0  0  0  0  0  0
   -0.3562   -0.8774    0.0058 C   0  0  0  0  0  0  0  0  0  0  0  0
   -0.7308   -1.7993    0.0131 H   0  0  0  0  0  0  0  0  0  0  0  0
   -1.0557    0.2440    0.0000 N   0  0  0  0  0  0  0  0  0  0  0  0
   -2.0554    0.3037    0.0052 H   0  0  0  0  0  0  0  0  0  0  0  0
   -5.4051    2.1170   -1.6643 C   0  0  0  0  0  0  0  0  0  0  0  0
   -6.3489    1.9300   -1.9555 H   0  0  0  0  0  0  0  0  0  0  0  0
   -5.4571    2.8896   -0.8972 H   0  0  0  0  0  0  0  0  0  0  0  0
   -4.7910    2.4312   -2.5082 H   0  0  0  0  0  0  0  0  0  0  0  0
   -4.8444    0.8200   -1.0933 C   0  0  0  0  0  0  0  0  0  0  0  0
   -3.8773    0.8446   -0.3241 O   0  0  0  0  0  0  0  0  0  0  0  0
   -5.4663   -0.3147   -1.4425 N   0  0  0  0  0  0  0  0  0  0  0  0
   -5.0415   -1.6306   -0.9598 C   0  0  0  0  0  0  0  0  0  0  0  0
   -5.1076   -1.6788    0.0461 H   0  0  0  0  0  0  0  0  0  0  0  0
   -4.0326   -1.8718   -1.2944 H   0  0  0  0  0  0  0  0  0  0  0  0
   -6.0587   -2.5947   -1.5942 C   0  0  0  0  0  0  0  0  0  0  0  0
   -5.6622   -3.0334   -2.4078 H   0  0  0  0  0  0  0  0  0  0  0  0
   -6.3172   -3.3104   -0.9384 H   0  0  0  0  0  0  0  0  0  0  0  0
   -7.2231   -1.7456   -1.9532 C   0  0  0  0  0  0  0  0  0  0  0  0
   -7.7274   -2.1415   -2.7293 H   0  0  0  0  0  0  0  0  0  0  0  0
   -7.8553   -1.6615   -1.1746 H   0  0  0  0  0  0  0  0  0  0  0  0
   -6.6465   -0.4088   -2.3188 C   0  0  0  0  0  0  0  0  0  0  0  0
   -6.3737   -0.3758   -3.2780 H   0  0  0  0  0  0  0  0  0  0  0  0
   -7.2865    0.3329   -2.1256 H   0  0  0  0  0  0  0  0  0  0  0  0
  1  5  1  0
  5  6  2  0
  6  8  1  0
  8 10  2  0
 10 12  1  0
 12  5  1  0
  1  2  1  0
  1  3  1  0
  1  4  1  0
  6  7  1  0
  8  9  1  0
 10 11  1  0
 12 13  1  0
 14 18  1  0
 18 19  2  0
 18 20  1  0
 20 21  1  0
 21 24  1  0
 24 27  1  0
 27 30  1  0
 30 20  1  0
 14 15  1  0
 14 16  1  0
 14 17  1  0
 21 22  1  0
 21 23  1  0
 24 25  1  0
 24 26  1  0
 27 28  1  0
 27 29  1  0
 30 31  1  0
 30 32  1  0
M  CHG  1   8   1
M  END
>  <PDB_ID>  (142) 
pdb5ayd

>  <RESIDUE_NAME>  (142) 
HIP   PRO

>  <FRAG_NAME>  (142) 
MIMM   N1PA

>  <FRAG_ATOM_NUM>  (142) 
fragi: 13  fragj: 19

>  <atom.prop.CHAIN_ID>  (142) 
A A A A A A A A A A A A A Z Z Z Z Z Z Z Z Z Z Z Z Z Z Z Z Z Z Z

>  <atom.prop.IS_HEAVY_ATOM>  (142) 
1 0 0 0 1 1 0 1 0 1 0 1 0 1 0 0 0 1 1 1 1 0 0 1 0 0 1 0 0 1 0 0

>  <DIFUSE_FUNC_ATOM>  (142) 
n/a

>  <FINAL_SINGLE_POINT_ENERGY>  (142) 
0

>  <NONCOV_INTER_ENERGY_QM>  (142) 
0

>  <FF_Energy>  (142) 
-16.79

>  <QM_Energy>  (142) 
-25.37

>  <Index>  (142) 
862

$$$$
MIMM-pdb5ayd-E-HIP-78:N1PA-pdb5ayd-E-PRO-92
     RDKit          3D

 32 32  0  0  0  0  0  0  0  0999 V2000
   -0.6800    2.7409   -0.0278 C   0  0  0  0  0  0  0  0  0  0  0  0
   -0.5459    3.1311    0.8916 H   0  0  0  0  0  0  0  0  0  0  0  0
   -1.6683    2.7347   -0.2257 H   0  0  0  0  0  0  0  0  0  0  0  0
   -0.1819    3.3809   -0.7560 H   0  0  0  0  0  0  0  0  0  0  0  0
   -0.1945    1.3212   -0.0122 C   0  0  0  0  0  0  0  0  0  0  0  0
    1.0564    0.8022    0.0000 C   0  0  0  0  0  0  0  0  0  0  0  0
    1.9109    1.3140    0.0048 H   0  0  0  0  0  0  0  0  0  0  0  0
    0.9268   -0.5668    0.0060 N   0  0  0  0  0  4  0  0  0  0  0  0
    1.6846   -1.2220    0.0098 H   0  0  0  0  0  0  0  0  0  0  0  0
   -0.3567   -0.8770    0.0036 C   0  0  0  0  0  0  0  0  0  0  0  0
   -0.7323   -1.7996    0.0062 H   0  0  0  0  0  0  0  0  0  0  0  0
   -1.0564    0.2430   -0.0000 N   0  0  0  0  0  0  0  0  0  0  0  0
   -2.0543    0.3052    0.0048 H   0  0  0  0  0  0  0  0  0  0  0  0
   -5.5726    1.9495   -1.1986 C   0  0  0  0  0  0  0  0  0  0  0  0
   -6.5205    1.6932   -1.4094 H   0  0  0  0  0  0  0  0  0  0  0  0
   -5.6107    2.7272   -0.4358 H   0  0  0  0  0  0  0  0  0  0  0  0
   -5.0467    2.2961   -2.0883 H   0  0  0  0  0  0  0  0  0  0  0  0
   -4.8867    0.7157   -0.6484 C   0  0  0  0  0  0  0  0  0  0  0  0
   -3.8637    0.8275    0.0110 O   0  0  0  0  0  0  0  0  0  0  0  0
   -5.4677   -0.4629   -0.8942 N   0  0  0  0  0  0  0  0  0  0  0  0
   -4.8909   -1.7271   -0.4292 C   0  0  0  0  0  0  0  0  0  0  0  0
   -4.7310   -1.7021    0.5710 H   0  0  0  0  0  0  0  0  0  0  0  0
   -3.9706   -1.9855   -0.9529 H   0  0  0  0  0  0  0  0  0  0  0  0
   -5.9908   -2.7512   -0.7340 C   0  0  0  0  0  0  0  0  0  0  0  0
   -5.7697   -3.2712   -1.5661 H   0  0  0  0  0  0  0  0  0  0  0  0
   -6.0959   -3.3967    0.0288 H   0  0  0  0  0  0  0  0  0  0  0  0
   -7.2407   -1.9454   -0.9266 C   0  0  0  0  0  0  0  0  0  0  0  0
   -7.8737   -2.4260   -1.5413 H   0  0  0  0  0  0  0  0  0  0  0  0
   -7.6975   -1.7971   -0.0444 H   0  0  0  0  0  0  0  0  0  0  0  0
   -6.7838   -0.6516   -1.5237 C   0  0  0  0  0  0  0  0  0  0  0  0
   -6.6918   -0.7148   -2.5142 H   0  0  0  0  0  0  0  0  0  0  0  0
   -7.3964    0.1011   -1.2883 H   0  0  0  0  0  0  0  0  0  0  0  0
  1  5  1  0
  5  6  2  0
  6  8  1  0
  8 10  2  0
 10 12  1  0
 12  5  1  0
  1  2  1  0
  1  3  1  0
  1  4  1  0
  6  7  1  0
  8  9  1  0
 10 11  1  0
 12 13  1  0
 14 18  1  0
 18 19  2  0
 18 20  1  0
 20 21  1  0
 21 24  1  0
 24 27  1  0
 27 30  1  0
 30 20  1  0
 14 15  1  0
 14 16  1  0
 14 17  1  0
 21 22  1  0
 21 23  1  0
 24 25  1  0
 24 26  1  0
 27 28  1  0
 27 29  1  0
 30 31  1  0
 30 32  1  0
M  CHG  1   8   1
M  END
>  <PDB_ID>  (143) 
pdb5ayd

>  <RESIDUE_NAME>  (143) 
HIP   PRO

>  <FRAG_NAME>  (143) 
MIMM   N1PA

>  <FRAG_ATOM_NUM>  (143) 
fragi: 13  fragj: 19

>  <atom.prop.CHAIN_ID>  (143) 
A A A A A A A A A A A A A Z Z Z Z Z Z Z Z Z Z Z Z Z Z Z Z Z Z Z

>  <atom.prop.IS_HEAVY_ATOM>  (143) 
1 0 0 0 1 1 0 1 0 1 0 1 0 1 0 0 0 1 1 1 1 0 0 1 0 0 1 0 0 1 0 0

>  <DIFUSE_FUNC_ATOM>  (143) 
n/a

>  <FINAL_SINGLE_POINT_ENERGY>  (143) 
0

>  <NONCOV_INTER_ENERGY_QM>  (143) 
0

>  <FF_Energy>  (143) 
-16.81

>  <QM_Energy>  (143) 
-25.56

>  <Index>  (143) 
863

$$$$
MIMM-pdb5bnz-B-HIP-197:N1PA-pdb5bnz-B-PRO-168
     RDKit          3D

 32 32  0  0  0  0  0  0  0  0999 V2000
   -0.6740    2.7466   -0.0154 C   0  0  0  0  0  0  0  0  0  0  0  0
   -1.5406    2.7854   -0.5210 H   0  0  0  0  0  0  0  0  0  0  0  0
    0.0066    3.3062   -0.4949 H   0  0  0  0  0  0  0  0  0  0  0  0
   -0.8270    3.1529    0.9845 H   0  0  0  0  0  0  0  0  0  0  0  0
   -0.1928    1.3208   -0.0147 C   0  0  0  0  0  0  0  0  0  0  0  0
    1.0557    0.8016   -0.0000 C   0  0  0  0  0  0  0  0  0  0  0  0
    1.9117    1.3112    0.0040 H   0  0  0  0  0  0  0  0  0  0  0  0
    0.9264   -0.5679    0.0106 N   0  0  0  0  0  4  0  0  0  0  0  0
    1.6843   -1.2230    0.0208 H   0  0  0  0  0  0  0  0  0  0  0  0
   -0.3561   -0.8775    0.0044 C   0  0  0  0  0  0  0  0  0  0  0  0
   -0.7336   -1.7986    0.0041 H   0  0  0  0  0  0  0  0  0  0  0  0
   -1.0557    0.2442   -0.0000 N   0  0  0  0  0  0  0  0  0  0  0  0
   -2.0530    0.3063    0.0068 H   0  0  0  0  0  0  0  0  0  0  0  0
   -0.2533   -5.9102   -0.5902 C   0  0  0  0  0  0  0  0  0  0  0  0
   -0.3494   -6.3525   -1.4995 H   0  0  0  0  0  0  0  0  0  0  0  0
    0.8124   -5.7462   -0.4311 H   0  0  0  0  0  0  0  0  0  0  0  0
   -0.6465   -6.5548    0.1959 H   0  0  0  0  0  0  0  0  0  0  0  0
   -1.0720   -4.6202   -0.6431 C   0  0  0  0  0  0  0  0  0  0  0  0
   -0.7261   -3.6248   -0.0121 O   0  0  0  0  0  0  0  0  0  0  0  0
   -2.1873   -4.6396   -1.3916 N   0  0  0  0  0  0  0  0  0  0  0  0
   -2.9907   -3.4104   -1.5140 C   0  0  0  0  0  0  0  0  0  0  0  0
   -2.4020   -2.6337   -1.7970 H   0  0  0  0  0  0  0  0  0  0  0  0
   -3.5377   -3.1708   -0.6021 H   0  0  0  0  0  0  0  0  0  0  0  0
   -3.9631   -3.7277   -2.6575 C   0  0  0  0  0  0  0  0  0  0  0  0
   -4.8759   -3.3452   -2.4579 H   0  0  0  0  0  0  0  0  0  0  0  0
   -3.6363   -3.3185   -3.5192 H   0  0  0  0  0  0  0  0  0  0  0  0
   -4.0112   -5.2082   -2.7510 C   0  0  0  0  0  0  0  0  0  0  0  0
   -4.7533   -5.5818   -2.1756 H   0  0  0  0  0  0  0  0  0  0  0  0
   -4.1801   -5.5035   -3.7020 H   0  0  0  0  0  0  0  0  0  0  0  0
   -2.6648   -5.7236   -2.2719 C   0  0  0  0  0  0  0  0  0  0  0  0
   -2.7662   -6.5735   -1.7610 H   0  0  0  0  0  0  0  0  0  0  0  0
   -2.0386   -5.8595   -3.0368 H   0  0  0  0  0  0  0  0  0  0  0  0
  1  5  1  0
  5  6  2  0
  6  8  1  0
  8 10  2  0
 10 12  1  0
 12  5  1  0
  1  2  1  0
  1  3  1  0
  1  4  1  0
  6  7  1  0
  8  9  1  0
 10 11  1  0
 12 13  1  0
 14 18  1  0
 18 19  2  0
 18 20  1  0
 20 21  1  0
 21 24  1  0
 24 27  1  0
 27 30  1  0
 30 20  1  0
 14 15  1  0
 14 16  1  0
 14 17  1  0
 21 22  1  0
 21 23  1  0
 24 25  1  0
 24 26  1  0
 27 28  1  0
 27 29  1  0
 30 31  1  0
 30 32  1  0
M  CHG  1   8   1
M  END
>  <PDB_ID>  (144) 
pdb5bnz

>  <RESIDUE_NAME>  (144) 
HIP   PRO

>  <FRAG_NAME>  (144) 
MIMM   N1PA

>  <FRAG_ATOM_NUM>  (144) 
fragi: 13  fragj: 19

>  <atom.prop.CHAIN_ID>  (144) 
A A A A A A A A A A A A A Z Z Z Z Z Z Z Z Z Z Z Z Z Z Z Z Z Z Z

>  <atom.prop.IS_HEAVY_ATOM>  (144) 
1 0 0 0 1 1 0 1 0 1 0 1 0 1 0 0 0 1 1 1 1 0 0 1 0 0 1 0 0 1 0 0

>  <DIFUSE_FUNC_ATOM>  (144) 
n/a

>  <FINAL_SINGLE_POINT_ENERGY>  (144) 
0

>  <NONCOV_INTER_ENERGY_QM>  (144) 
0

>  <FF_Energy>  (144) 
17.67

>  <QM_Energy>  (144) 
-18.85

>  <Index>  (144) 
870

$$$$
MIMM-pdb6bng-A-HIP-243:N1PA-pdb6bng-A-PRO-246
     RDKit          3D

 32 32  0  0  0  0  0  0  0  0999 V2000
   -0.6703    2.7470   -0.0122 C   0  0  0  0  0  0  0  0  0  0  0  0
    0.0717    3.3277    0.3393 H   0  0  0  0  0  0  0  0  0  0  0  0
   -1.4540    2.8158    0.6141 H   0  0  0  0  0  0  0  0  0  0  0  0
   -0.9717    3.1175   -0.9920 H   0  0  0  0  0  0  0  0  0  0  0  0
   -0.1943    1.3227   -0.0170 C   0  0  0  0  0  0  0  0  0  0  0  0
    1.0576    0.8018   -0.0000 C   0  0  0  0  0  0  0  0  0  0  0  0
    1.9120    1.3126    0.0039 H   0  0  0  0  0  0  0  0  0  0  0  0
    0.9285   -0.5693    0.0125 N   0  0  0  0  0  4  0  0  0  0  0  0
    1.6840   -1.2242    0.0241 H   0  0  0  0  0  0  0  0  0  0  0  0
   -0.3577   -0.8780    0.0050 C   0  0  0  0  0  0  0  0  0  0  0  0
   -0.7342   -1.7998    0.0045 H   0  0  0  0  0  0  0  0  0  0  0  0
   -1.0576    0.2446    0.0000 N   0  0  0  0  0  0  0  0  0  0  0  0
   -2.0550    0.3068    0.0068 H   0  0  0  0  0  0  0  0  0  0  0  0
   -4.6947   -0.0210    0.7108 C   0  0  0  0  0  0  0  0  0  0  0  0
   -5.5649    0.4712    0.7897 H   0  0  0  0  0  0  0  0  0  0  0  0
   -4.2213    0.3096   -0.2137 H   0  0  0  0  0  0  0  0  0  0  0  0
   -4.8476   -1.1001    0.7008 H   0  0  0  0  0  0  0  0  0  0  0  0
   -3.8394    0.3842    1.9020 C   0  0  0  0  0  0  0  0  0  0  0  0
   -3.1275   -0.4477    2.4847 O   0  0  0  0  0  0  0  0  0  0  0  0
   -3.9551    1.6450    2.3435 N   0  0  0  0  0  0  0  0  0  0  0  0
   -3.0035    2.1795    3.3408 C   0  0  0  0  0  0  0  0  0  0  0  0
   -2.0843    2.3041    2.9071 H   0  0  0  0  0  0  0  0  0  0  0  0
   -2.9244    1.5927    4.2560 H   0  0  0  0  0  0  0  0  0  0  0  0
   -3.5378    3.5907    3.6327 C   0  0  0  0  0  0  0  0  0  0  0  0
   -4.1037    3.5922    4.4602 H   0  0  0  0  0  0  0  0  0  0  0  0
   -2.7835    4.2392    3.7518 H   0  0  0  0  0  0  0  0  0  0  0  0
   -4.3691    3.9596    2.4218 C   0  0  0  0  0  0  0  0  0  0  0  0
   -5.1276    4.5650    2.6946 H   0  0  0  0  0  0  0  0  0  0  0  0
   -3.8010    4.4515    1.7497 H   0  0  0  0  0  0  0  0  0  0  0  0
   -4.8974    2.6665    1.8364 C   0  0  0  0  0  0  0  0  0  0  0  0
   -5.8249    2.4756    2.1547 H   0  0  0  0  0  0  0  0  0  0  0  0
   -4.8856    2.6892    0.8363 H   0  0  0  0  0  0  0  0  0  0  0  0
  1  5  1  0
  5  6  2  0
  6  8  1  0
  8 10  2  0
 10 12  1  0
 12  5  1  0
  1  2  1  0
  1  3  1  0
  1  4  1  0
  6  7  1  0
  8  9  1  0
 10 11  1  0
 12 13  1  0
 14 18  1  0
 18 19  2  0
 18 20  1  0
 20 21  1  0
 21 24  1  0
 24 27  1  0
 27 30  1  0
 30 20  1  0
 14 15  1  0
 14 16  1  0
 14 17  1  0
 21 22  1  0
 21 23  1  0
 24 25  1  0
 24 26  1  0
 27 28  1  0
 27 29  1  0
 30 31  1  0
 30 32  1  0
M  CHG  1   8   1
M  END
>  <PDB_ID>  (145) 
pdb6bng

>  <RESIDUE_NAME>  (145) 
HIP   PRO

>  <FRAG_NAME>  (145) 
MIMM   N1PA

>  <FRAG_ATOM_NUM>  (145) 
fragi: 13  fragj: 19

>  <atom.prop.CHAIN_ID>  (145) 
A A A A A A A A A A A A A Z Z Z Z Z Z Z Z Z Z Z Z Z Z Z Z Z Z Z

>  <atom.prop.IS_HEAVY_ATOM>  (145) 
1 0 0 0 1 1 0 1 0 1 0 1 0 1 0 0 0 1 1 1 1 0 0 1 0 0 1 0 0 1 0 0

>  <DIFUSE_FUNC_ATOM>  (145) 
n/a

>  <FINAL_SINGLE_POINT_ENERGY>  (145) 
0

>  <NONCOV_INTER_ENERGY_QM>  (145) 
0

>  <FF_Energy>  (145) 
-4.85

>  <QM_Energy>  (145) 
-10.31

>  <Index>  (145) 
875

$$$$
MIMM-pdb6bs3-B-HIP-324:N1PA-pdb6bs3-B-PRO-293
     RDKit          3D

 32 32  0  0  0  0  0  0  0  0999 V2000
   -0.5881    2.7384    0.0303 C   0  0  0  0  0  0  0  0  0  0  0  0
   -1.4739    2.8161   -0.4427 H   0  0  0  0  0  0  0  0  0  0  0  0
    0.0911    3.2830   -0.4764 H   0  0  0  0  0  0  0  0  0  0  0  0
   -0.6902    3.1553    1.0322 H   0  0  0  0  0  0  0  0  0  0  0  0
   -0.1609    1.3059    0.0048 C   0  0  0  0  0  0  0  0  0  0  0  0
    1.0845    0.7756    0.0000 C   0  0  0  0  0  0  0  0  0  0  0  0
    1.9425    1.2759   -0.0045 H   0  0  0  0  0  0  0  0  0  0  0  0
    0.9323   -0.5872    0.0042 N   0  0  0  0  0  4  0  0  0  0  0  0
    1.6549   -1.2626    0.0104 H   0  0  0  0  0  0  0  0  0  0  0  0
   -0.3751   -0.8384   -0.0032 C   0  0  0  0  0  0  0  0  0  0  0  0
   -0.7714   -1.7719   -0.0091 H   0  0  0  0  0  0  0  0  0  0  0  0
   -1.0845    0.2776   -0.0000 N   0  0  0  0  0  0  0  0  0  0  0  0
   -2.0561    0.3635   -0.0013 H   0  0  0  0  0  0  0  0  0  0  0  0
    2.0576   -3.7479   -2.3471 C   0  0  0  0  0  0  0  0  0  0  0  0
    2.5793   -4.3477   -2.9663 H   0  0  0  0  0  0  0  0  0  0  0  0
    1.1083   -4.2324   -2.1186 H   0  0  0  0  0  0  0  0  0  0  0  0
    1.8884   -2.8149   -2.8847 H   0  0  0  0  0  0  0  0  0  0  0  0
    2.9017   -3.5108   -1.0836 C   0  0  0  0  0  0  0  0  0  0  0  0
    2.3815   -2.9413   -0.1274 O   0  0  0  0  0  0  0  0  0  0  0  0
    4.1750   -3.9769   -1.0282 N   0  0  0  0  0  0  0  0  0  0  0  0
    4.9741   -3.7661    0.1950 C   0  0  0  0  0  0  0  0  0  0  0  0
    4.5102   -4.1924    0.9951 H   0  0  0  0  0  0  0  0  0  0  0  0
    5.2012   -2.7196    0.3984 H   0  0  0  0  0  0  0  0  0  0  0  0
    6.2318   -4.6108   -0.0354 C   0  0  0  0  0  0  0  0  0  0  0  0
    7.0421   -4.1403    0.3368 H   0  0  0  0  0  0  0  0  0  0  0  0
    6.1451   -5.5018    0.4265 H   0  0  0  0  0  0  0  0  0  0  0  0
    6.3302   -4.7716   -1.5026 C   0  0  0  0  0  0  0  0  0  0  0  0
    6.9084   -4.0385   -1.9052 H   0  0  0  0  0  0  0  0  0  0  0  0
    6.7720   -5.6565   -1.7363 H   0  0  0  0  0  0  0  0  0  0  0  0
    4.9406   -4.7125   -2.0590 C   0  0  0  0  0  0  0  0  0  0  0  0
    4.9107   -4.2184   -2.9313 H   0  0  0  0  0  0  0  0  0  0  0  0
    4.5541   -5.6296   -2.1901 H   0  0  0  0  0  0  0  0  0  0  0  0
  1  5  1  0
  5  6  2  0
  6  8  1  0
  8 10  2  0
 10 12  1  0
 12  5  1  0
  1  2  1  0
  1  3  1  0
  1  4  1  0
  6  7  1  0
  8  9  1  0
 10 11  1  0
 12 13  1  0
 14 18  1  0
 18 19  2  0
 18 20  1  0
 20 21  1  0
 21 24  1  0
 24 27  1  0
 27 30  1  0
 30 20  1  0
 14 15  1  0
 14 16  1  0
 14 17  1  0
 21 22  1  0
 21 23  1  0
 24 25  1  0
 24 26  1  0
 27 28  1  0
 27 29  1  0
 30 31  1  0
 30 32  1  0
M  CHG  1   8   1
M  END
>  <PDB_ID>  (146) 
pdb6bs3

>  <RESIDUE_NAME>  (146) 
HIP   PRO

>  <FRAG_NAME>  (146) 
MIMM   N1PA

>  <FRAG_ATOM_NUM>  (146) 
fragi: 13  fragj: 19

>  <atom.prop.CHAIN_ID>  (146) 
A A A A A A A A A A A A A Z Z Z Z Z Z Z Z Z Z Z Z Z Z Z Z Z Z Z

>  <atom.prop.IS_HEAVY_ATOM>  (146) 
1 0 0 0 1 1 0 1 0 1 0 1 0 1 0 0 0 1 1 1 1 0 0 1 0 0 1 0 0 1 0 0

>  <DIFUSE_FUNC_ATOM>  (146) 
n/a

>  <FINAL_SINGLE_POINT_ENERGY>  (146) 
0

>  <NONCOV_INTER_ENERGY_QM>  (146) 
0

>  <FF_Energy>  (146) 
-15.84

>  <QM_Energy>  (146) 
-24.85

>  <Index>  (146) 
878

$$$$
MIMM-pdb6bxi-A-HIP-225:N1PA-pdb6bxi-A-PRO-394
     RDKit          3D

 32 32  0  0  0  0  0  0  0  0999 V2000
   -0.6716    2.7276    0.0122 C   0  0  0  0  0  0  0  0  0  0  0  0
    0.0407    3.3080    0.4199 H   0  0  0  0  0  0  0  0  0  0  0  0
   -1.4979    2.7851    0.5812 H   0  0  0  0  0  0  0  0  0  0  0  0
   -0.9025    3.0957   -0.9875 H   0  0  0  0  0  0  0  0  0  0  0  0
   -0.1920    1.3177    0.0197 C   0  0  0  0  0  0  0  0  0  0  0  0
    1.0560    0.7998   -0.0000 C   0  0  0  0  0  0  0  0  0  0  0  0
    1.9112    1.3118   -0.0098 H   0  0  0  0  0  0  0  0  0  0  0  0
    0.9257   -0.5654   -0.0023 N   0  0  0  0  0  4  0  0  0  0  0  0
    1.6817   -1.2237   -0.0007 H   0  0  0  0  0  0  0  0  0  0  0  0
   -0.3579   -0.8739   -0.0088 C   0  0  0  0  0  0  0  0  0  0  0  0
   -0.7337   -1.7971   -0.0174 H   0  0  0  0  0  0  0  0  0  0  0  0
   -1.0560    0.2451    0.0000 N   0  0  0  0  0  0  0  0  0  0  0  0
   -2.0538    0.3086   -0.0068 H   0  0  0  0  0  0  0  0  0  0  0  0
    1.7193   -5.2937    1.5524 C   0  0  0  0  0  0  0  0  0  0  0  0
    2.6061   -5.6571    1.8321 H   0  0  0  0  0  0  0  0  0  0  0  0
    1.3524   -4.6152    2.3226 H   0  0  0  0  0  0  0  0  0  0  0  0
    1.0268   -6.1272    1.4343 H   0  0  0  0  0  0  0  0  0  0  0  0
    1.9028   -4.5139    0.2440 C   0  0  0  0  0  0  0  0  0  0  0  0
    1.4144   -3.3806    0.1321 O   0  0  0  0  0  0  0  0  0  0  0  0
    2.6256   -5.0931   -0.7345 N   0  0  0  0  0  0  0  0  0  0  0  0
    2.8363   -4.3827   -2.0097 C   0  0  0  0  0  0  0  0  0  0  0  0
    3.5104   -3.6301   -1.8869 H   0  0  0  0  0  0  0  0  0  0  0  0
    1.9197   -4.0005   -2.4591 H   0  0  0  0  0  0  0  0  0  0  0  0
    3.4706   -5.4520   -2.8966 C   0  0  0  0  0  0  0  0  0  0  0  0
    2.7779   -5.9861   -3.3708 H   0  0  0  0  0  0  0  0  0  0  0  0
    4.1042   -5.0513   -3.5499 H   0  0  0  0  0  0  0  0  0  0  0  0
    4.2246   -6.3326   -1.9044 C   0  0  0  0  0  0  0  0  0  0  0  0
    4.3602   -7.2424   -2.2973 H   0  0  0  0  0  0  0  0  0  0  0  0
    5.1135   -5.9226   -1.6996 H   0  0  0  0  0  0  0  0  0  0  0  0
    3.3473   -6.3817   -0.6904 C   0  0  0  0  0  0  0  0  0  0  0  0
    2.7006   -7.1444   -0.7322 H   0  0  0  0  0  0  0  0  0  0  0  0
    3.8845   -6.4508    0.1518 H   0  0  0  0  0  0  0  0  0  0  0  0
  1  5  1  0
  5  6  2  0
  6  8  1  0
  8 10  2  0
 10 12  1  0
 12  5  1  0
  1  2  1  0
  1  3  1  0
  1  4  1  0
  6  7  1  0
  8  9  1  0
 10 11  1  0
 12 13  1  0
 14 18  1  0
 18 19  2  0
 18 20  1  0
 20 21  1  0
 21 24  1  0
 24 27  1  0
 27 30  1  0
 30 20  1  0
 14 15  1  0
 14 16  1  0
 14 17  1  0
 21 22  1  0
 21 23  1  0
 24 25  1  0
 24 26  1  0
 27 28  1  0
 27 29  1  0
 30 31  1  0
 30 32  1  0
M  CHG  1   8   1
M  END
>  <PDB_ID>  (147) 
pdb6bxi

>  <RESIDUE_NAME>  (147) 
HIP   PRO

>  <FRAG_NAME>  (147) 
MIMM   N1PA

>  <FRAG_ATOM_NUM>  (147) 
fragi: 13  fragj: 19

>  <atom.prop.CHAIN_ID>  (147) 
A A A A A A A A A A A A A Z Z Z Z Z Z Z Z Z Z Z Z Z Z Z Z Z Z Z

>  <atom.prop.IS_HEAVY_ATOM>  (147) 
1 0 0 0 1 1 0 1 0 1 0 1 0 1 0 0 0 1 1 1 1 0 0 1 0 0 1 0 0 1 0 0

>  <DIFUSE_FUNC_ATOM>  (147) 
n/a

>  <FINAL_SINGLE_POINT_ENERGY>  (147) 
0

>  <NONCOV_INTER_ENERGY_QM>  (147) 
0

>  <FF_Energy>  (147) 
-15.31

>  <QM_Energy>  (147) 
-24.13

>  <Index>  (147) 
882

$$$$
MIMM-pdb6bxi-B-HIP-225:N1PA-pdb6bxi-B-PRO-394
     RDKit          3D

 32 32  0  0  0  0  0  0  0  0999 V2000
   -0.6799    2.7279    0.0208 C   0  0  0  0  0  0  0  0  0  0  0  0
    0.0383    3.3100    0.4144 H   0  0  0  0  0  0  0  0  0  0  0  0
   -1.4943    2.7808    0.6079 H   0  0  0  0  0  0  0  0  0  0  0  0
   -0.9335    3.0965   -0.9732 H   0  0  0  0  0  0  0  0  0  0  0  0
   -0.1940    1.3176    0.0165 C   0  0  0  0  0  0  0  0  0  0  0  0
    1.0557    0.8020    0.0000 C   0  0  0  0  0  0  0  0  0  0  0  0
    1.9093    1.3147   -0.0054 H   0  0  0  0  0  0  0  0  0  0  0  0
    0.9264   -0.5651   -0.0062 N   0  0  0  0  0  4  0  0  0  0  0  0
    1.6840   -1.2217   -0.0110 H   0  0  0  0  0  0  0  0  0  0  0  0
   -0.3575   -0.8751   -0.0067 C   0  0  0  0  0  0  0  0  0  0  0  0
   -0.7324   -1.7983   -0.0102 H   0  0  0  0  0  0  0  0  0  0  0  0
   -1.0557    0.2438    0.0000 N   0  0  0  0  0  0  0  0  0  0  0  0
   -2.0536    0.3058   -0.0063 H   0  0  0  0  0  0  0  0  0  0  0  0
    1.3330   -5.3780    1.4859 C   0  0  0  0  0  0  0  0  0  0  0  0
    2.2128   -5.7563    1.7607 H   0  0  0  0  0  0  0  0  0  0  0  0
    0.9834   -4.6933    2.2587 H   0  0  0  0  0  0  0  0  0  0  0  0
    0.6304   -6.2038    1.3749 H   0  0  0  0  0  0  0  0  0  0  0  0
    1.5227   -4.5935    0.1839 C   0  0  0  0  0  0  0  0  0  0  0  0
    1.0852   -3.4446    0.1059 O   0  0  0  0  0  0  0  0  0  0  0  0
    2.2046   -5.1819   -0.8202 N   0  0  0  0  0  0  0  0  0  0  0  0
    2.4731   -4.4344   -2.0575 C   0  0  0  0  0  0  0  0  0  0  0  0
    3.1455   -3.6908   -1.8824 H   0  0  0  0  0  0  0  0  0  0  0  0
    1.5757   -4.0331   -2.5283 H   0  0  0  0  0  0  0  0  0  0  0  0
    3.1472   -5.4793   -2.9575 C   0  0  0  0  0  0  0  0  0  0  0  0
    2.4698   -5.9622   -3.5095 H   0  0  0  0  0  0  0  0  0  0  0  0
    3.8236   -5.0513   -3.5533 H   0  0  0  0  0  0  0  0  0  0  0  0
    3.8111   -6.4208   -1.9848 C   0  0  0  0  0  0  0  0  0  0  0  0
    3.9416   -7.3195   -2.4080 H   0  0  0  0  0  0  0  0  0  0  0  0
    4.7019   -6.0566   -1.7064 H   0  0  0  0  0  0  0  0  0  0  0  0
    2.8691   -6.5010   -0.8186 C   0  0  0  0  0  0  0  0  0  0  0  0
    2.1947   -7.2309   -0.9382 H   0  0  0  0  0  0  0  0  0  0  0  0
    3.3595   -6.6435    0.0428 H   0  0  0  0  0  0  0  0  0  0  0  0
  1  5  1  0
  5  6  2  0
  6  8  1  0
  8 10  2  0
 10 12  1  0
 12  5  1  0
  1  2  1  0
  1  3  1  0
  1  4  1  0
  6  7  1  0
  8  9  1  0
 10 11  1  0
 12 13  1  0
 14 18  1  0
 18 19  2  0
 18 20  1  0
 20 21  1  0
 21 24  1  0
 24 27  1  0
 27 30  1  0
 30 20  1  0
 14 15  1  0
 14 16  1  0
 14 17  1  0
 21 22  1  0
 21 23  1  0
 24 25  1  0
 24 26  1  0
 27 28  1  0
 27 29  1  0
 30 31  1  0
 30 32  1  0
M  CHG  1   8   1
M  END
>  <PDB_ID>  (148) 
pdb6bxi

>  <RESIDUE_NAME>  (148) 
HIP   PRO

>  <FRAG_NAME>  (148) 
MIMM   N1PA

>  <FRAG_ATOM_NUM>  (148) 
fragi: 13  fragj: 19

>  <atom.prop.CHAIN_ID>  (148) 
A A A A A A A A A A A A A Z Z Z Z Z Z Z Z Z Z Z Z Z Z Z Z Z Z Z

>  <atom.prop.IS_HEAVY_ATOM>  (148) 
1 0 0 0 1 1 0 1 0 1 0 1 0 1 0 0 0 1 1 1 1 0 0 1 0 0 1 0 0 1 0 0

>  <DIFUSE_FUNC_ATOM>  (148) 
n/a

>  <FINAL_SINGLE_POINT_ENERGY>  (148) 
0

>  <NONCOV_INTER_ENERGY_QM>  (148) 
0

>  <FF_Energy>  (148) 
-14.19

>  <QM_Energy>  (148) 
-23.47

>  <Index>  (148) 
883

$$$$
MIMM-pdb5dac-A-HIP-158:N1PA-pdb5dac-A-PRO-56
     RDKit          3D

 32 32  0  0  0  0  0  0  0  0999 V2000
   -0.6851    2.7405    0.0094 C   0  0  0  0  0  0  0  0  0  0  0  0
   -1.6413    2.7447   -0.3040 H   0  0  0  0  0  0  0  0  0  0  0  0
   -0.1316    3.2625   -0.6482 H   0  0  0  0  0  0  0  0  0  0  0  0
   -0.6296    3.2289    0.9823 H   0  0  0  0  0  0  0  0  0  0  0  0
   -0.1969    1.3199    0.0118 C   0  0  0  0  0  0  0  0  0  0  0  0
    1.0562    0.8012   -0.0000 C   0  0  0  0  0  0  0  0  0  0  0  0
    1.9094    1.3154   -0.0019 H   0  0  0  0  0  0  0  0  0  0  0  0
    0.9282   -0.5659   -0.0070 N   0  0  0  0  0  4  0  0  0  0  0  0
    1.6849   -1.2223   -0.0143 H   0  0  0  0  0  0  0  0  0  0  0  0
   -0.3560   -0.8751   -0.0048 C   0  0  0  0  0  0  0  0  0  0  0  0
   -0.7314   -1.7988   -0.0047 H   0  0  0  0  0  0  0  0  0  0  0  0
   -1.0562    0.2436    0.0000 N   0  0  0  0  0  0  0  0  0  0  0  0
   -2.0554    0.3037   -0.0055 H   0  0  0  0  0  0  0  0  0  0  0  0
   -6.7785   -2.1058   -3.6219 C   0  0  0  0  0  0  0  0  0  0  0  0
   -6.9618   -2.4856   -2.7106 H   0  0  0  0  0  0  0  0  0  0  0  0
   -7.5714   -1.4022   -3.8757 H   0  0  0  0  0  0  0  0  0  0  0  0
   -6.7424   -2.9217   -4.3437 H   0  0  0  0  0  0  0  0  0  0  0  0
   -5.4468   -1.3865   -3.5851 C   0  0  0  0  0  0  0  0  0  0  0  0
   -5.3279   -0.2645   -4.0545 O   0  0  0  0  0  0  0  0  0  0  0  0
   -4.4293   -2.0347   -3.0202 N   0  0  0  0  0  0  0  0  0  0  0  0
   -3.1248   -1.3803   -2.9447 C   0  0  0  0  0  0  0  0  0  0  0  0
   -3.1744   -0.5338   -2.4074 H   0  0  0  0  0  0  0  0  0  0  0  0
   -2.7400   -1.1735   -3.9433 H   0  0  0  0  0  0  0  0  0  0  0  0
   -2.2678   -2.4098   -2.2043 C   0  0  0  0  0  0  0  0  0  0  0  0
   -1.7344   -2.9610   -2.8532 H   0  0  0  0  0  0  0  0  0  0  0  0
   -1.6350   -1.9565   -1.5709 H   0  0  0  0  0  0  0  0  0  0  0  0
   -3.2466   -3.2661   -1.4578 C   0  0  0  0  0  0  0  0  0  0  0  0
   -2.8573   -4.1843   -1.3068 H   0  0  0  0  0  0  0  0  0  0  0  0
   -3.4443   -2.8580   -0.5571 H   0  0  0  0  0  0  0  0  0  0  0  0
   -4.4604   -3.3233   -2.3069 C   0  0  0  0  0  0  0  0  0  0  0  0
   -4.4271   -4.0817   -2.9606 H   0  0  0  0  0  0  0  0  0  0  0  0
   -5.2993   -3.3973   -1.7616 H   0  0  0  0  0  0  0  0  0  0  0  0
  1  5  1  0
  5  6  2  0
  6  8  1  0
  8 10  2  0
 10 12  1  0
 12  5  1  0
  1  2  1  0
  1  3  1  0
  1  4  1  0
  6  7  1  0
  8  9  1  0
 10 11  1  0
 12 13  1  0
 14 18  1  0
 18 19  2  0
 18 20  1  0
 20 21  1  0
 21 24  1  0
 24 27  1  0
 27 30  1  0
 30 20  1  0
 14 15  1  0
 14 16  1  0
 14 17  1  0
 21 22  1  0
 21 23  1  0
 24 25  1  0
 24 26  1  0
 27 28  1  0
 27 29  1  0
 30 31  1  0
 30 32  1  0
M  CHG  1   8   1
M  END
>  <PDB_ID>  (149) 
pdb5dac

>  <RESIDUE_NAME>  (149) 
HIP   PRO

>  <FRAG_NAME>  (149) 
MIMM   N1PA

>  <FRAG_ATOM_NUM>  (149) 
fragi: 13  fragj: 19

>  <atom.prop.CHAIN_ID>  (149) 
A A A A A A A A A A A A A Z Z Z Z Z Z Z Z Z Z Z Z Z Z Z Z Z Z Z

>  <atom.prop.IS_HEAVY_ATOM>  (149) 
1 0 0 0 1 1 0 1 0 1 0 1 0 1 0 0 0 1 1 1 1 0 0 1 0 0 1 0 0 1 0 0

>  <DIFUSE_FUNC_ATOM>  (149) 
n/a

>  <FINAL_SINGLE_POINT_ENERGY>  (149) 
0

>  <NONCOV_INTER_ENERGY_QM>  (149) 
0

>  <FF_Energy>  (149) 
7.68

>  <QM_Energy>  (149) 
2.18

>  <Index>  (149) 
899

$$$$
MIMM-pdb5f84-A-HIP-112:N1PA-pdb5f84-A-PRO-141
     RDKit          3D

 32 32  0  0  0  0  0  0  0  0999 V2000
   -0.7067    2.7269    0.0137 C   0  0  0  0  0  0  0  0  0  0  0  0
    0.0930    3.3325    0.0146 H   0  0  0  0  0  0  0  0  0  0  0  0
   -1.2300    2.8792    0.8562 H   0  0  0  0  0  0  0  0  0  0  0  0
   -1.3343    2.9602   -0.8464 H   0  0  0  0  0  0  0  0  0  0  0  0
   -0.2209    1.3086    0.0150 C   0  0  0  0  0  0  0  0  0  0  0  0
    1.0621    0.7812    0.0000 C   0  0  0  0  0  0  0  0  0  0  0  0
    1.8979    1.3244   -0.0045 H   0  0  0  0  0  0  0  0  0  0  0  0
    0.9469   -0.5600   -0.0050 N   0  0  0  0  0  4  0  0  0  0  0  0
    1.6935   -1.2282   -0.0086 H   0  0  0  0  0  0  0  0  0  0  0  0
   -0.3529   -0.8782   -0.0064 C   0  0  0  0  0  0  0  0  0  0  0  0
   -0.7260   -1.7914   -0.0100 H   0  0  0  0  0  0  0  0  0  0  0  0
   -1.0621    0.2617   -0.0000 N   0  0  0  0  0  0  0  0  0  0  0  0
   -2.0640    0.2967   -0.0061 H   0  0  0  0  0  0  0  0  0  0  0  0
   -4.2081   -3.0958   -0.5890 C   0  0  0  0  0  0  0  0  0  0  0  0
   -4.3335   -4.0861   -0.4605 H   0  0  0  0  0  0  0  0  0  0  0  0
   -3.7623   -2.6818    0.3154 H   0  0  0  0  0  0  0  0  0  0  0  0
   -5.1768   -2.6330   -0.7774 H   0  0  0  0  0  0  0  0  0  0  0  0
   -3.2977   -2.8775   -1.7896 C   0  0  0  0  0  0  0  0  0  0  0  0
   -2.6761   -1.8265   -1.9113 O   0  0  0  0  0  0  0  0  0  0  0  0
   -3.2151   -3.8777   -2.6792 N   0  0  0  0  0  0  0  0  0  0  0  0
   -2.4328   -3.7166   -3.8851 C   0  0  0  0  0  0  0  0  0  0  0  0
   -1.4998   -3.3806   -3.6699 H   0  0  0  0  0  0  0  0  0  0  0  0
   -2.9207   -3.0582   -4.6038 H   0  0  0  0  0  0  0  0  0  0  0  0
   -2.3587   -5.1333   -4.4698 C   0  0  0  0  0  0  0  0  0  0  0  0
   -2.9167   -5.1931   -5.3128 H   0  0  0  0  0  0  0  0  0  0  0  0
   -1.4049   -5.3601   -4.7183 H   0  0  0  0  0  0  0  0  0  0  0  0
   -2.8714   -6.0482   -3.4233 C   0  0  0  0  0  0  0  0  0  0  0  0
   -3.3679   -6.8243   -3.8417 H   0  0  0  0  0  0  0  0  0  0  0  0
   -2.1076   -6.4300   -2.8808 H   0  0  0  0  0  0  0  0  0  0  0  0
   -3.7792   -5.2342   -2.5671 C   0  0  0  0  0  0  0  0  0  0  0  0
   -4.7217   -5.2480   -2.9041 H   0  0  0  0  0  0  0  0  0  0  0  0
   -3.7654   -5.5395   -1.6130 H   0  0  0  0  0  0  0  0  0  0  0  0
  1  5  1  0
  5  6  2  0
  6  8  1  0
  8 10  2  0
 10 12  1  0
 12  5  1  0
  1  2  1  0
  1  3  1  0
  1  4  1  0
  6  7  1  0
  8  9  1  0
 10 11  1  0
 12 13  1  0
 14 18  1  0
 18 19  2  0
 18 20  1  0
 20 21  1  0
 21 24  1  0
 24 27  1  0
 27 30  1  0
 30 20  1  0
 14 15  1  0
 14 16  1  0
 14 17  1  0
 21 22  1  0
 21 23  1  0
 24 25  1  0
 24 26  1  0
 27 28  1  0
 27 29  1  0
 30 31  1  0
 30 32  1  0
M  CHG  1   8   1
M  END
>  <PDB_ID>  (150) 
pdb5f84

>  <RESIDUE_NAME>  (150) 
HIP   PRO

>  <FRAG_NAME>  (150) 
MIMM   N1PA

>  <FRAG_ATOM_NUM>  (150) 
fragi: 13  fragj: 19

>  <atom.prop.CHAIN_ID>  (150) 
A A A A A A A A A A A A A Z Z Z Z Z Z Z Z Z Z Z Z Z Z Z Z Z Z Z

>  <atom.prop.IS_HEAVY_ATOM>  (150) 
1 0 0 0 1 1 0 1 0 1 0 1 0 1 0 0 0 1 1 1 1 0 0 1 0 0 1 0 0 1 0 0

>  <DIFUSE_FUNC_ATOM>  (150) 
n/a

>  <FINAL_SINGLE_POINT_ENERGY>  (150) 
0

>  <NONCOV_INTER_ENERGY_QM>  (150) 
0

>  <FF_Energy>  (150) 
-10.94

>  <QM_Energy>  (150) 
-16.93

>  <Index>  (150) 
932

$$$$
MIMM-pdb6grl-A-HIP-37:N1PA-pdb6grl-A-PRO-15
     RDKit          3D

 32 32  0  0  0  0  0  0  0  0999 V2000
   -0.6711    2.7365   -0.0019 C   0  0  0  0  0  0  0  0  0  0  0  0
    0.0152    3.3002    0.4753 H   0  0  0  0  0  0  0  0  0  0  0  0
   -1.5313    2.7793    0.5232 H   0  0  0  0  0  0  0  0  0  0  0  0
   -0.8433    3.1541   -0.9939 H   0  0  0  0  0  0  0  0  0  0  0  0
   -0.1941    1.3199   -0.0071 C   0  0  0  0  0  0  0  0  0  0  0  0
    1.0561    0.8008   -0.0000 C   0  0  0  0  0  0  0  0  0  0  0  0
    1.9112    1.3125    0.0040 H   0  0  0  0  0  0  0  0  0  0  0  0
    0.9271   -0.5668    0.0016 N   0  0  0  0  0  4  0  0  0  0  0  0
    1.6837   -1.2233    0.0016 H   0  0  0  0  0  0  0  0  0  0  0  0
   -0.3573   -0.8760    0.0021 C   0  0  0  0  0  0  0  0  0  0  0  0
   -0.7330   -1.7984    0.0055 H   0  0  0  0  0  0  0  0  0  0  0  0
   -1.0561    0.2445   -0.0000 N   0  0  0  0  0  0  0  0  0  0  0  0
   -2.0542    0.3068    0.0022 H   0  0  0  0  0  0  0  0  0  0  0  0
   -5.0169   -0.7153   -0.8983 C   0  0  0  0  0  0  0  0  0  0  0  0
   -5.8090   -0.5914   -1.5047 H   0  0  0  0  0  0  0  0  0  0  0  0
   -4.1581   -0.9514   -1.5267 H   0  0  0  0  0  0  0  0  0  0  0  0
   -5.1838   -1.5072   -0.1683 H   0  0  0  0  0  0  0  0  0  0  0  0
   -4.7996    0.6125   -0.1756 C   0  0  0  0  0  0  0  0  0  0  0  0
   -3.6708    0.9289    0.2153 O   0  0  0  0  0  0  0  0  0  0  0  0
   -5.8519    1.4086    0.0160 N   0  0  0  0  0  0  0  0  0  0  0  0
   -5.7231    2.6067    0.8546 C   0  0  0  0  0  0  0  0  0  0  0  0
   -5.0696    3.2556    0.4481 H   0  0  0  0  0  0  0  0  0  0  0  0
   -5.4280    2.3404    1.8695 H   0  0  0  0  0  0  0  0  0  0  0  0
   -7.1278    3.2209    0.8186 C   0  0  0  0  0  0  0  0  0  0  0  0
   -7.6575    2.9391    1.6208 H   0  0  0  0  0  0  0  0  0  0  0  0
   -7.0767    4.2206    0.7936 H   0  0  0  0  0  0  0  0  0  0  0  0
   -7.7406    2.6853   -0.4408 C   0  0  0  0  0  0  0  0  0  0  0  0
   -8.7420    2.6700   -0.3630 H   0  0  0  0  0  0  0  0  0  0  0  0
   -7.4872    3.2618   -1.2243 H   0  0  0  0  0  0  0  0  0  0  0  0
   -7.1894    1.2974   -0.5913 C   0  0  0  0  0  0  0  0  0  0  0  0
   -7.7423    0.6267   -0.0994 H   0  0  0  0  0  0  0  0  0  0  0  0
   -7.1172    1.0326   -1.5521 H   0  0  0  0  0  0  0  0  0  0  0  0
  1  5  1  0
  5  6  2  0
  6  8  1  0
  8 10  2  0
 10 12  1  0
 12  5  1  0
  1  2  1  0
  1  3  1  0
  1  4  1  0
  6  7  1  0
  8  9  1  0
 10 11  1  0
 12 13  1  0
 14 18  1  0
 18 19  2  0
 18 20  1  0
 20 21  1  0
 21 24  1  0
 24 27  1  0
 27 30  1  0
 30 20  1  0
 14 15  1  0
 14 16  1  0
 14 17  1  0
 21 22  1  0
 21 23  1  0
 24 25  1  0
 24 26  1  0
 27 28  1  0
 27 29  1  0
 30 31  1  0
 30 32  1  0
M  CHG  1   8   1
M  END
>  <PDB_ID>  (151) 
pdb6grl

>  <RESIDUE_NAME>  (151) 
HIP   PRO

>  <FRAG_NAME>  (151) 
MIMM   N1PA

>  <FRAG_ATOM_NUM>  (151) 
fragi: 13  fragj: 19

>  <atom.prop.CHAIN_ID>  (151) 
A A A A A A A A A A A A A Z Z Z Z Z Z Z Z Z Z Z Z Z Z Z Z Z Z Z

>  <atom.prop.IS_HEAVY_ATOM>  (151) 
1 0 0 0 1 1 0 1 0 1 0 1 0 1 0 0 0 1 1 1 1 0 0 1 0 0 1 0 0 1 0 0

>  <DIFUSE_FUNC_ATOM>  (151) 
n/a

>  <FINAL_SINGLE_POINT_ENERGY>  (151) 
0

>  <NONCOV_INTER_ENERGY_QM>  (151) 
0

>  <FF_Energy>  (151) 
-17.21

>  <QM_Energy>  (151) 
-28.08

>  <Index>  (151) 
939

$$$$
MIMM-pdb6io9-A-HIP-163:N1PA-pdb6io9-A-PRO-171
     RDKit          3D

 32 32  0  0  0  0  0  0  0  0999 V2000
   -0.6638    2.7351    0.0041 C   0  0  0  0  0  0  0  0  0  0  0  0
    0.0584    3.3072    0.4160 H   0  0  0  0  0  0  0  0  0  0  0  0
   -1.4813    2.7936    0.5928 H   0  0  0  0  0  0  0  0  0  0  0  0
   -0.9097    3.1312   -0.9812 H   0  0  0  0  0  0  0  0  0  0  0  0
   -0.1933    1.3192   -0.0062 C   0  0  0  0  0  0  0  0  0  0  0  0
    1.0566    0.8005    0.0000 C   0  0  0  0  0  0  0  0  0  0  0  0
    1.9112    1.3129    0.0058 H   0  0  0  0  0  0  0  0  0  0  0  0
    0.9267   -0.5660   -0.0027 N   0  0  0  0  0  4  0  0  0  0  0  0
    1.6837   -1.2231   -0.0089 H   0  0  0  0  0  0  0  0  0  0  0  0
   -0.3570   -0.8754    0.0026 C   0  0  0  0  0  0  0  0  0  0  0  0
   -0.7334   -1.7981    0.0089 H   0  0  0  0  0  0  0  0  0  0  0  0
   -1.0566    0.2445    0.0000 N   0  0  0  0  0  0  0  0  0  0  0  0
   -2.0542    0.3062    0.0018 H   0  0  0  0  0  0  0  0  0  0  0  0
   -5.6304   -1.1337   -0.4636 C   0  0  0  0  0  0  0  0  0  0  0  0
   -5.6688   -0.2148   -0.9102 H   0  0  0  0  0  0  0  0  0  0  0  0
   -6.5774   -1.6310   -0.6737 H   0  0  0  0  0  0  0  0  0  0  0  0
   -5.5282   -0.9817    0.6109 H   0  0  0  0  0  0  0  0  0  0  0  0
   -4.3859   -1.8383   -1.0160 C   0  0  0  0  0  0  0  0  0  0  0  0
   -3.4114   -2.0379   -0.2881 O   0  0  0  0  0  0  0  0  0  0  0  0
   -4.3794   -2.2065   -2.2977 N   0  0  0  0  0  0  0  0  0  0  0  0
   -3.1689   -2.7972   -2.8701 C   0  0  0  0  0  0  0  0  0  0  0  0
   -2.8795   -3.6026   -2.3373 H   0  0  0  0  0  0  0  0  0  0  0  0
   -2.3652   -2.0635   -2.9331 H   0  0  0  0  0  0  0  0  0  0  0  0
   -3.6210   -3.2316   -4.2649 C   0  0  0  0  0  0  0  0  0  0  0  0
   -2.8583   -3.2069   -4.9072 H   0  0  0  0  0  0  0  0  0  0  0  0
   -4.0140   -4.1480   -4.2405 H   0  0  0  0  0  0  0  0  0  0  0  0
   -4.6539   -2.2132   -4.6193 C   0  0  0  0  0  0  0  0  0  0  0  0
   -4.2201   -1.3757   -4.9624 H   0  0  0  0  0  0  0  0  0  0  0  0
   -5.2727   -2.5701   -5.3242 H   0  0  0  0  0  0  0  0  0  0  0  0
   -5.3957   -1.9476   -3.3392 C   0  0  0  0  0  0  0  0  0  0  0  0
   -5.7134   -1.0016   -3.2883 H   0  0  0  0  0  0  0  0  0  0  0  0
   -6.1742   -2.5669   -3.2288 H   0  0  0  0  0  0  0  0  0  0  0  0
  1  5  1  0
  5  6  2  0
  6  8  1  0
  8 10  2  0
 10 12  1  0
 12  5  1  0
  1  2  1  0
  1  3  1  0
  1  4  1  0
  6  7  1  0
  8  9  1  0
 10 11  1  0
 12 13  1  0
 14 18  1  0
 18 19  2  0
 18 20  1  0
 20 21  1  0
 21 24  1  0
 24 27  1  0
 27 30  1  0
 30 20  1  0
 14 15  1  0
 14 16  1  0
 14 17  1  0
 21 22  1  0
 21 23  1  0
 24 25  1  0
 24 26  1  0
 27 28  1  0
 27 29  1  0
 30 31  1  0
 30 32  1  0
M  CHG  1   8   1
M  END
>  <PDB_ID>  (152) 
pdb6io9

>  <RESIDUE_NAME>  (152) 
HIP   PRO

>  <FRAG_NAME>  (152) 
MIMM   N1PA

>  <FRAG_ATOM_NUM>  (152) 
fragi: 13  fragj: 19

>  <atom.prop.CHAIN_ID>  (152) 
A A A A A A A A A A A A A Z Z Z Z Z Z Z Z Z Z Z Z Z Z Z Z Z Z Z

>  <atom.prop.IS_HEAVY_ATOM>  (152) 
1 0 0 0 1 1 0 1 0 1 0 1 0 1 0 0 0 1 1 1 1 0 0 1 0 0 1 0 0 1 0 0

>  <DIFUSE_FUNC_ATOM>  (152) 
n/a

>  <FINAL_SINGLE_POINT_ENERGY>  (152) 
0

>  <NONCOV_INTER_ENERGY_QM>  (152) 
0

>  <FF_Energy>  (152) 
-11.07

>  <QM_Energy>  (152) 
-17.65

>  <Index>  (152) 
979

$$$$
MIMM-pdb6hqd-A-HIP-409:N1PA-pdb6hqd-A-PRO-305
     RDKit          3D

 32 32  0  0  0  0  0  0  0  0999 V2000
   -0.6414    2.7510    0.0024 C   0  0  0  0  0  0  0  0  0  0  0  0
   -0.2948    3.2237    0.8267 H   0  0  0  0  0  0  0  0  0  0  0  0
   -1.6521    2.7581    0.0493 H   0  0  0  0  0  0  0  0  0  0  0  0
   -0.3356    3.3216   -0.8745 H   0  0  0  0  0  0  0  0  0  0  0  0
   -0.1750    1.3330    0.0373 C   0  0  0  0  0  0  0  0  0  0  0  0
    1.0669    0.7931    0.0000 C   0  0  0  0  0  0  0  0  0  0  0  0
    1.9304    1.2960   -0.0214 H   0  0  0  0  0  0  0  0  0  0  0  0
    0.9288   -0.5769   -0.0018 N   0  0  0  0  0  4  0  0  0  0  0  0
    1.6693   -1.2421    0.0060 H   0  0  0  0  0  0  0  0  0  0  0  0
   -0.3815   -0.8817   -0.0169 C   0  0  0  0  0  0  0  0  0  0  0  0
   -0.7537   -1.7978   -0.0355 H   0  0  0  0  0  0  0  0  0  0  0  0
   -1.0669    0.2487   -0.0000 N   0  0  0  0  0  0  0  0  0  0  0  0
   -2.0576    0.3350   -0.0124 H   0  0  0  0  0  0  0  0  0  0  0  0
   -5.4793    0.4012    1.5020 C   0  0  0  0  0  0  0  0  0  0  0  0
   -6.3855    0.6856    1.8334 H   0  0  0  0  0  0  0  0  0  0  0  0
   -5.6206   -0.4186    0.7976 H   0  0  0  0  0  0  0  0  0  0  0  0
   -4.9380    0.0970    2.3978 H   0  0  0  0  0  0  0  0  0  0  0  0
   -4.8059    1.6082    0.8331 C   0  0  0  0  0  0  0  0  0  0  0  0
   -3.6183    1.8693    1.0330 O   0  0  0  0  0  0  0  0  0  0  0  0
   -5.5738    2.4327    0.0916 N   0  0  0  0  0  0  0  0  0  0  0  0
   -5.0063    3.5696   -0.6430 C   0  0  0  0  0  0  0  0  0  0  0  0
   -4.3569    3.2322   -1.3692 H   0  0  0  0  0  0  0  0  0  0  0  0
   -4.5240    4.3432   -0.0455 H   0  0  0  0  0  0  0  0  0  0  0  0
   -6.2122    4.1565   -1.3912 C   0  0  0  0  0  0  0  0  0  0  0  0
   -6.6096    4.9172   -0.8814 H   0  0  0  0  0  0  0  0  0  0  0  0
   -5.9489    4.4635   -2.3038 H   0  0  0  0  0  0  0  0  0  0  0  0
   -7.1842    3.0057   -1.4746 C   0  0  0  0  0  0  0  0  0  0  0  0
   -8.1270    3.3520   -1.5407 H   0  0  0  0  0  0  0  0  0  0  0  0
   -6.9928    2.4492   -2.2912 H   0  0  0  0  0  0  0  0  0  0  0  0
   -6.9949    2.1971   -0.2147 C   0  0  0  0  0  0  0  0  0  0  0  0
   -7.5741    2.5312    0.5222 H   0  0  0  0  0  0  0  0  0  0  0  0
   -7.1648    1.2290   -0.3748 H   0  0  0  0  0  0  0  0  0  0  0  0
  1  5  1  0
  5  6  2  0
  6  8  1  0
  8 10  2  0
 10 12  1  0
 12  5  1  0
  1  2  1  0
  1  3  1  0
  1  4  1  0
  6  7  1  0
  8  9  1  0
 10 11  1  0
 12 13  1  0
 14 18  1  0
 18 19  2  0
 18 20  1  0
 20 21  1  0
 21 24  1  0
 24 27  1  0
 27 30  1  0
 30 20  1  0
 14 15  1  0
 14 16  1  0
 14 17  1  0
 21 22  1  0
 21 23  1  0
 24 25  1  0
 24 26  1  0
 27 28  1  0
 27 29  1  0
 30 31  1  0
 30 32  1  0
M  CHG  1   8   1
M  END
>  <PDB_ID>  (153) 
pdb6hqd

>  <RESIDUE_NAME>  (153) 
HIP   PRO

>  <FRAG_NAME>  (153) 
MIMM   N1PA

>  <FRAG_ATOM_NUM>  (153) 
fragi: 13  fragj: 19

>  <atom.prop.CHAIN_ID>  (153) 
A A A A A A A A A A A A A Z Z Z Z Z Z Z Z Z Z Z Z Z Z Z Z Z Z Z

>  <atom.prop.IS_HEAVY_ATOM>  (153) 
1 0 0 0 1 1 0 1 0 1 0 1 0 1 0 0 0 1 1 1 1 0 0 1 0 0 1 0 0 1 0 0

>  <DIFUSE_FUNC_ATOM>  (153) 
n/a

>  <FINAL_SINGLE_POINT_ENERGY>  (153) 
0

>  <NONCOV_INTER_ENERGY_QM>  (153) 
0

>  <FF_Energy>  (153) 
-11.29

>  <QM_Energy>  (153) 
-19.24

>  <Index>  (153) 
982

$$$$
MIMM-pdb6hqd-B-HIP-409:N1PA-pdb6hqd-B-PRO-305
     RDKit          3D

 32 32  0  0  0  0  0  0  0  0999 V2000
   -0.6897    2.7322   -0.0638 C   0  0  0  0  0  0  0  0  0  0  0  0
   -0.3167    3.2188    0.7330 H   0  0  0  0  0  0  0  0  0  0  0  0
   -1.6929    2.7173    0.0115 H   0  0  0  0  0  0  0  0  0  0  0  0
   -0.4178    3.2821   -0.9648 H   0  0  0  0  0  0  0  0  0  0  0  0
   -0.1903    1.3220   -0.0378 C   0  0  0  0  0  0  0  0  0  0  0  0
    1.0575    0.8012    0.0000 C   0  0  0  0  0  0  0  0  0  0  0  0
    1.9138    1.3081    0.0381 H   0  0  0  0  0  0  0  0  0  0  0  0
    0.9314   -0.5770   -0.0231 N   0  0  0  0  0  4  0  0  0  0  0  0
    1.6816   -1.2283   -0.0654 H   0  0  0  0  0  0  0  0  0  0  0  0
   -0.3605   -0.8766    0.0195 C   0  0  0  0  0  0  0  0  0  0  0  0
   -0.7410   -1.7961    0.0609 H   0  0  0  0  0  0  0  0  0  0  0  0
   -1.0575    0.2499   -0.0000 N   0  0  0  0  0  0  0  0  0  0  0  0
   -2.0540    0.3142    0.0097 H   0  0  0  0  0  0  0  0  0  0  0  0
   -5.4227    0.0660    1.6724 C   0  0  0  0  0  0  0  0  0  0  0  0
   -6.3158    0.3169    2.0323 H   0  0  0  0  0  0  0  0  0  0  0  0
   -5.5579   -0.7613    0.9756 H   0  0  0  0  0  0  0  0  0  0  0  0
   -4.8404   -0.1954    2.5560 H   0  0  0  0  0  0  0  0  0  0  0  0
   -4.8473    1.2634    0.9098 C   0  0  0  0  0  0  0  0  0  0  0  0
   -3.6708    1.6181    1.0618 O   0  0  0  0  0  0  0  0  0  0  0  0
   -5.6709    1.9564    0.0804 N   0  0  0  0  0  0  0  0  0  0  0  0
   -5.1884    3.0662   -0.7517 C   0  0  0  0  0  0  0  0  0  0  0  0
   -4.5706    2.7063   -1.4972 H   0  0  0  0  0  0  0  0  0  0  0  0
   -4.6996    3.8955   -0.2404 H   0  0  0  0  0  0  0  0  0  0  0  0
   -6.4800    3.5536   -1.4385 C   0  0  0  0  0  0  0  0  0  0  0  0
   -6.9361    4.2430   -0.8818 H   0  0  0  0  0  0  0  0  0  0  0  0
   -6.2812    3.9215   -2.3419 H   0  0  0  0  0  0  0  0  0  0  0  0
   -7.3227    2.3049   -1.5415 C   0  0  0  0  0  0  0  0  0  0  0  0
   -8.2745    2.5407   -1.6629 H   0  0  0  0  0  0  0  0  0  0  0  0
   -6.9964    1.7291   -2.2759 H   0  0  0  0  0  0  0  0  0  0  0  0
   -7.0850    1.6646   -0.1970 C   0  0  0  0  0  0  0  0  0  0  0  0
   -7.6732    2.0659    0.5062 H   0  0  0  0  0  0  0  0  0  0  0  0
   -7.2415    0.6748   -0.2313 H   0  0  0  0  0  0  0  0  0  0  0  0
  1  5  1  0
  5  6  2  0
  6  8  1  0
  8 10  2  0
 10 12  1  0
 12  5  1  0
  1  2  1  0
  1  3  1  0
  1  4  1  0
  6  7  1  0
  8  9  1  0
 10 11  1  0
 12 13  1  0
 14 18  1  0
 18 19  2  0
 18 20  1  0
 20 21  1  0
 21 24  1  0
 24 27  1  0
 27 30  1  0
 30 20  1  0
 14 15  1  0
 14 16  1  0
 14 17  1  0
 21 22  1  0
 21 23  1  0
 24 25  1  0
 24 26  1  0
 27 28  1  0
 27 29  1  0
 30 31  1  0
 30 32  1  0
M  CHG  1   8   1
M  END
>  <PDB_ID>  (154) 
pdb6hqd

>  <RESIDUE_NAME>  (154) 
HIP   PRO

>  <FRAG_NAME>  (154) 
MIMM   N1PA

>  <FRAG_ATOM_NUM>  (154) 
fragi: 13  fragj: 19

>  <atom.prop.CHAIN_ID>  (154) 
A A A A A A A A A A A A A Z Z Z Z Z Z Z Z Z Z Z Z Z Z Z Z Z Z Z

>  <atom.prop.IS_HEAVY_ATOM>  (154) 
1 0 0 0 1 1 0 1 0 1 0 1 0 1 0 0 0 1 1 1 1 0 0 1 0 0 1 0 0 1 0 0

>  <DIFUSE_FUNC_ATOM>  (154) 
n/a

>  <FINAL_SINGLE_POINT_ENERGY>  (154) 
0

>  <NONCOV_INTER_ENERGY_QM>  (154) 
0

>  <FF_Energy>  (154) 
-12.36

>  <QM_Energy>  (154) 
-20.0

>  <Index>  (154) 
983

$$$$
MIMM-pdb6j02-B-HIP-97:N1PA-pdb6j02-B-PRO-67
     RDKit          3D

 32 32  0  0  0  0  0  0  0  0999 V2000
   -0.6690    2.7208    0.0198 C   0  0  0  0  0  0  0  0  0  0  0  0
    0.0929    3.2972    0.1833 H   0  0  0  0  0  0  0  0  0  0  0  0
   -1.3177    2.8179    0.7339 H   0  0  0  0  0  0  0  0  0  0  0  0
   -1.1351    3.0058   -0.9234 H   0  0  0  0  0  0  0  0  0  0  0  0
   -0.1882    1.3087    0.0210 C   0  0  0  0  0  0  0  0  0  0  0  0
    1.0595    0.7806   -0.0000 C   0  0  0  0  0  0  0  0  0  0  0  0
    1.8595    1.2544    0.0051 H   0  0  0  0  0  0  0  0  0  0  0  0
    0.9193   -0.5853   -0.0087 N   0  0  0  0  0  4  0  0  0  0  0  0
    1.5644   -1.1552   -0.0151 H   0  0  0  0  0  0  0  0  0  0  0  0
   -0.3719   -0.8843   -0.0040 C   0  0  0  0  0  0  0  0  0  0  0  0
   -0.7311   -1.7418   -0.0123 H   0  0  0  0  0  0  0  0  0  0  0  0
   -1.0595    0.2378   -0.0000 N   0  0  0  0  0  0  0  0  0  0  0  0
   -1.9171    0.2952    0.0068 H   0  0  0  0  0  0  0  0  0  0  0  0
    2.7541   -3.8359    1.8394 C   0  0  0  0  0  0  0  0  0  0  0  0
    3.7141   -3.9449    1.9260 H   0  0  0  0  0  0  0  0  0  0  0  0
    2.3162   -4.5932    2.2580 H   0  0  0  0  0  0  0  0  0  0  0  0
    2.4429   -2.9138    2.3305 H   0  0  0  0  0  0  0  0  0  0  0  0
    2.3983   -3.8211    0.3672 C   0  0  0  0  0  0  0  0  0  0  0  0
    2.3157   -2.7617   -0.2714 O   0  0  0  0  0  0  0  0  0  0  0  0
    2.2132   -5.0051   -0.2078 N   0  0  0  0  0  0  0  0  0  0  0  0
    1.9473   -5.0859   -1.6451 C   0  0  0  0  0  0  0  0  0  0  0  0
    2.6475   -4.6441   -2.1496 H   0  0  0  0  0  0  0  0  0  0  0  0
    0.9813   -4.6441   -1.8898 H   0  0  0  0  0  0  0  0  0  0  0  0
    1.9623   -6.5897   -1.9437 C   0  0  0  0  0  0  0  0  0  0  0  0
    1.2132   -6.8138   -2.5173 H   0  0  0  0  0  0  0  0  0  0  0  0
    2.8013   -6.8278   -2.3673 H   0  0  0  0  0  0  0  0  0  0  0  0
    1.8322   -7.2636   -0.6347 C   0  0  0  0  0  0  0  0  0  0  0  0
    0.8978   -7.4626   -0.4700 H   0  0  0  0  0  0  0  0  0  0  0  0
    2.3525   -8.0828   -0.6449 H   0  0  0  0  0  0  0  0  0  0  0  0
    2.3539   -6.3379    0.4108 C   0  0  0  0  0  0  0  0  0  0  0  0
    1.8135   -6.3958    1.2132 H   0  0  0  0  0  0  0  0  0  0  0  0
    3.2868   -6.5273    0.5949 H   0  0  0  0  0  0  0  0  0  0  0  0
  1  5  1  0
  5  6  2  0
  6  8  1  0
  8 10  2  0
 10 12  1  0
 12  5  1  0
  1  2  1  0
  1  3  1  0
  1  4  1  0
  6  7  1  0
  8  9  1  0
 10 11  1  0
 12 13  1  0
 14 18  1  0
 18 19  2  0
 18 20  1  0
 20 21  1  0
 21 24  1  0
 24 27  1  0
 27 30  1  0
 30 20  1  0
 14 15  1  0
 14 16  1  0
 14 17  1  0
 21 22  1  0
 21 23  1  0
 24 25  1  0
 24 26  1  0
 27 28  1  0
 27 29  1  0
 30 31  1  0
 30 32  1  0
M  CHG  1   8   1
M  END
>  <PDB_ID>  (155) 
pdb6j02

>  <RESIDUE_NAME>  (155) 
HIP   PRO

>  <FRAG_NAME>  (155) 
MIMM   N1PA

>  <FRAG_ATOM_NUM>  (155) 
fragi: 13  fragj: 19

>  <atom.prop.CHAIN_ID>  (155) 
A A A A A A A A A A A A A Z Z Z Z Z Z Z Z Z Z Z Z Z Z Z Z Z Z Z

>  <atom.prop.IS_HEAVY_ATOM>  (155) 
1 0 0 0 1 1 0 1 0 1 0 1 0 1 0 0 0 1 1 1 1 0 0 1 0 0 1 0 0 1 0 0

>  <DIFUSE_FUNC_ATOM>  (155) 
n/a

>  <FINAL_SINGLE_POINT_ENERGY>  (155) 
0

>  <NONCOV_INTER_ENERGY_QM>  (155) 
0

>  <FF_Energy>  (155) 
-13.52

>  <QM_Energy>  (155) 
-23.42

>  <Index>  (155) 
984

$$$$
MIMM-pdb5in3-A-HIP-186:N1PA-pdb5in3-A-PRO-183
     RDKit          3D

 32 32  0  0  0  0  0  0  0  0999 V2000
   -0.7364    2.6927    0.0440 C   0  0  0  0  0  0  0  0  0  0  0  0
   -0.0114    3.2982    0.2679 H   0  0  0  0  0  0  0  0  0  0  0  0
   -1.4427    2.7554    0.7060 H   0  0  0  0  0  0  0  0  0  0  0  0
   -1.1363    2.9577   -0.9347 H   0  0  0  0  0  0  0  0  0  0  0  0
   -0.2028    1.3008    0.0615 C   0  0  0  0  0  0  0  0  0  0  0  0
    1.0510    0.8027   -0.0000 C   0  0  0  0  0  0  0  0  0  0  0  0
    1.8467    1.2835    0.0231 H   0  0  0  0  0  0  0  0  0  0  0  0
    0.9104   -0.5695   -0.0129 N   0  0  0  0  0  4  0  0  0  0  0  0
    1.6800   -1.2240   -0.0077 H   0  0  0  0  0  0  0  0  0  0  0  0
   -0.3598   -0.8937   -0.0341 C   0  0  0  0  0  0  0  0  0  0  0  0
   -0.7076   -1.7560   -0.0486 H   0  0  0  0  0  0  0  0  0  0  0  0
   -1.0510    0.2219    0.0000 N   0  0  0  0  0  0  0  0  0  0  0  0
   -1.9091    0.2696    0.0055 H   0  0  0  0  0  0  0  0  0  0  0  0
   -1.3038   -5.1380    2.4160 C   0  0  0  0  0  0  0  0  0  0  0  0
   -1.8061   -5.6923    3.0331 H   0  0  0  0  0  0  0  0  0  0  0  0
   -0.5768   -5.7535    1.8861 H   0  0  0  0  0  0  0  0  0  0  0  0
   -0.7965   -4.3605    2.9873 H   0  0  0  0  0  0  0  0  0  0  0  0
   -2.2722   -4.5605    1.3914 C   0  0  0  0  0  0  0  0  0  0  0  0
   -1.8345   -3.8482    0.4694 O   0  0  0  0  0  0  0  0  0  0  0  0
   -3.5629   -4.9027    1.4609 N   0  0  0  0  0  0  0  0  0  0  0  0
   -4.5111   -4.5121    0.4092 C   0  0  0  0  0  0  0  0  0  0  0  0
   -4.1244   -4.6663   -0.4674 H   0  0  0  0  0  0  0  0  0  0  0  0
   -4.8608   -3.4816    0.4728 H   0  0  0  0  0  0  0  0  0  0  0  0
   -5.6779   -5.4777    0.6218 C   0  0  0  0  0  0  0  0  0  0  0  0
   -6.5112   -5.0481    0.3730 H   0  0  0  0  0  0  0  0  0  0  0  0
   -5.5360   -6.2868    0.1066 H   0  0  0  0  0  0  0  0  0  0  0  0
   -5.6430   -5.7731    2.1262 C   0  0  0  0  0  0  0  0  0  0  0  0
   -6.1044   -5.0709    2.6106 H   0  0  0  0  0  0  0  0  0  0  0  0
   -6.0469   -6.6367    2.3011 H   0  0  0  0  0  0  0  0  0  0  0  0
   -4.1759   -5.7878    2.4735 C   0  0  0  0  0  0  0  0  0  0  0  0
   -4.0377   -5.4286    3.3637 H   0  0  0  0  0  0  0  0  0  0  0  0
   -3.8201   -6.6869    2.3950 H   0  0  0  0  0  0  0  0  0  0  0  0
  1  5  1  0
  5  6  2  0
  6  8  1  0
  8 10  2  0
 10 12  1  0
 12  5  1  0
  1  2  1  0
  1  3  1  0
  1  4  1  0
  6  7  1  0
  8  9  1  0
 10 11  1  0
 12 13  1  0
 14 18  1  0
 18 19  2  0
 18 20  1  0
 20 21  1  0
 21 24  1  0
 24 27  1  0
 27 30  1  0
 30 20  1  0
 14 15  1  0
 14 16  1  0
 14 17  1  0
 21 22  1  0
 21 23  1  0
 24 25  1  0
 24 26  1  0
 27 28  1  0
 27 29  1  0
 30 31  1  0
 30 32  1  0
M  CHG  1   8   1
M  END
>  <PDB_ID>  (156) 
pdb5in3

>  <RESIDUE_NAME>  (156) 
HIP   PRO

>  <FRAG_NAME>  (156) 
MIMM   N1PA

>  <FRAG_ATOM_NUM>  (156) 
fragi: 13  fragj: 19

>  <atom.prop.CHAIN_ID>  (156) 
A A A A A A A A A A A A A Z Z Z Z Z Z Z Z Z Z Z Z Z Z Z Z Z Z Z

>  <atom.prop.IS_HEAVY_ATOM>  (156) 
1 0 0 0 1 1 0 1 0 1 0 1 0 1 0 0 0 1 1 1 1 0 0 1 0 0 1 0 0 1 0 0

>  <DIFUSE_FUNC_ATOM>  (156) 
n/a

>  <FINAL_SINGLE_POINT_ENERGY>  (156) 
0

>  <NONCOV_INTER_ENERGY_QM>  (156) 
0

>  <FF_Energy>  (156) 
-9.87

>  <QM_Energy>  (156) 
-17.03

>  <Index>  (156) 
990

$$$$
MIMM-pdb5iqs-A-HIP-129:N1PA-pdb5iqs-A-PRO-135
     RDKit          3D

 32 32  0  0  0  0  0  0  0  0999 V2000
   -0.6819    2.7279    0.0028 C   0  0  0  0  0  0  0  0  0  0  0  0
   -1.3110    2.8553   -0.7700 H   0  0  0  0  0  0  0  0  0  0  0  0
    0.1070    3.3374   -0.1188 H   0  0  0  0  0  0  0  0  0  0  0  0
   -1.1954    2.9921    0.9273 H   0  0  0  0  0  0  0  0  0  0  0  0
   -0.1948    1.3183   -0.0131 C   0  0  0  0  0  0  0  0  0  0  0  0
    1.0553    0.8017   -0.0000 C   0  0  0  0  0  0  0  0  0  0  0  0
    1.9089    1.3140    0.0053 H   0  0  0  0  0  0  0  0  0  0  0  0
    0.9268   -0.5654    0.0054 N   0  0  0  0  0  4  0  0  0  0  0  0
    1.6843   -1.2216    0.0087 H   0  0  0  0  0  0  0  0  0  0  0  0
   -0.3570   -0.8755    0.0042 C   0  0  0  0  0  0  0  0  0  0  0  0
   -0.7320   -1.7984    0.0076 H   0  0  0  0  0  0  0  0  0  0  0  0
   -1.0553    0.2438    0.0000 N   0  0  0  0  0  0  0  0  0  0  0  0
   -2.0544    0.3056    0.0046 H   0  0  0  0  0  0  0  0  0  0  0  0
   -4.8002   -1.0637    1.3413 C   0  0  0  0  0  0  0  0  0  0  0  0
   -4.8500   -2.0566    1.1774 H   0  0  0  0  0  0  0  0  0  0  0  0
   -4.0103   -0.8701    2.0670 H   0  0  0  0  0  0  0  0  0  0  0  0
   -5.7541   -0.7041    1.7272 H   0  0  0  0  0  0  0  0  0  0  0  0
   -4.5128   -0.3721    0.0129 C   0  0  0  0  0  0  0  0  0  0  0  0
   -3.7719    0.6155   -0.0264 O   0  0  0  0  0  0  0  0  0  0  0  0
   -5.1021   -0.8795   -1.0864 N   0  0  0  0  0  0  0  0  0  0  0  0
   -5.0269   -0.1248   -2.3376 C   0  0  0  0  0  0  0  0  0  0  0  0
   -4.0703    0.0374   -2.6011 H   0  0  0  0  0  0  0  0  0  0  0  0
   -5.5700    0.8165   -2.2530 H   0  0  0  0  0  0  0  0  0  0  0  0
   -5.7036   -1.0481   -3.3557 C   0  0  0  0  0  0  0  0  0  0  0  0
   -6.2477   -0.5119   -4.0101 H   0  0  0  0  0  0  0  0  0  0  0  0
   -5.0164   -1.5748   -3.8653 H   0  0  0  0  0  0  0  0  0  0  0  0
   -6.5730   -1.9445   -2.5449 C   0  0  0  0  0  0  0  0  0  0  0  0
   -7.4779   -1.5238   -2.4005 H   0  0  0  0  0  0  0  0  0  0  0  0
   -6.7067   -2.8255   -3.0150 H   0  0  0  0  0  0  0  0  0  0  0  0
   -5.8579   -2.1350   -1.2430 C   0  0  0  0  0  0  0  0  0  0  0  0
   -6.4987   -2.2540   -0.4838 H   0  0  0  0  0  0  0  0  0  0  0  0
   -5.2335   -2.9173   -1.2747 H   0  0  0  0  0  0  0  0  0  0  0  0
  1  5  1  0
  5  6  2  0
  6  8  1  0
  8 10  2  0
 10 12  1  0
 12  5  1  0
  1  2  1  0
  1  3  1  0
  1  4  1  0
  6  7  1  0
  8  9  1  0
 10 11  1  0
 12 13  1  0
 14 18  1  0
 18 19  2  0
 18 20  1  0
 20 21  1  0
 21 24  1  0
 24 27  1  0
 27 30  1  0
 30 20  1  0
 14 15  1  0
 14 16  1  0
 14 17  1  0
 21 22  1  0
 21 23  1  0
 24 25  1  0
 24 26  1  0
 27 28  1  0
 27 29  1  0
 30 31  1  0
 30 32  1  0
M  CHG  1   8   1
M  END
>  <PDB_ID>  (157) 
pdb5iqs

>  <RESIDUE_NAME>  (157) 
HIP   PRO

>  <FRAG_NAME>  (157) 
MIMM   N1PA

>  <FRAG_ATOM_NUM>  (157) 
fragi: 13  fragj: 19

>  <atom.prop.CHAIN_ID>  (157) 
A A A A A A A A A A A A A Z Z Z Z Z Z Z Z Z Z Z Z Z Z Z Z Z Z Z

>  <atom.prop.IS_HEAVY_ATOM>  (157) 
1 0 0 0 1 1 0 1 0 1 0 1 0 1 0 0 0 1 1 1 1 0 0 1 0 0 1 0 0 1 0 0

>  <DIFUSE_FUNC_ATOM>  (157) 
n/a

>  <FINAL_SINGLE_POINT_ENERGY>  (157) 
0

>  <NONCOV_INTER_ENERGY_QM>  (157) 
0

>  <FF_Energy>  (157) 
-15.33

>  <QM_Energy>  (157) 
-23.54

>  <Index>  (157) 
992

$$$$
MIMM-pdb6jpm-A-HIP-32:N1PA-pdb6jpm-A-PRO-118
     RDKit          3D

 32 32  0  0  0  0  0  0  0  0999 V2000
   -0.6785    2.7323   -0.0047 C   0  0  0  0  0  0  0  0  0  0  0  0
   -1.4923    2.7920   -0.5917 H   0  0  0  0  0  0  0  0  0  0  0  0
    0.0421    3.3147   -0.3959 H   0  0  0  0  0  0  0  0  0  0  0  0
   -0.9313    3.1029    0.9887 H   0  0  0  0  0  0  0  0  0  0  0  0
   -0.1961    1.3184   -0.0087 C   0  0  0  0  0  0  0  0  0  0  0  0
    1.0550    0.8024   -0.0000 C   0  0  0  0  0  0  0  0  0  0  0  0
    1.9085    1.3152    0.0054 H   0  0  0  0  0  0  0  0  0  0  0  0
    0.9272   -0.5662    0.0008 N   0  0  0  0  0  4  0  0  0  0  0  0
    1.6860   -1.2208   -0.0019 H   0  0  0  0  0  0  0  0  0  0  0  0
   -0.3545   -0.8760    0.0032 C   0  0  0  0  0  0  0  0  0  0  0  0
   -0.7311   -1.7984    0.0079 H   0  0  0  0  0  0  0  0  0  0  0  0
   -1.0550    0.2439   -0.0000 N   0  0  0  0  0  0  0  0  0  0  0  0
   -2.0536    0.3025    0.0025 H   0  0  0  0  0  0  0  0  0  0  0  0
    4.5976   -3.2135    2.1650 C   0  0  0  0  0  0  0  0  0  0  0  0
    5.1849   -4.0185    2.0411 H   0  0  0  0  0  0  0  0  0  0  0  0
    5.2162   -2.3177    2.1110 H   0  0  0  0  0  0  0  0  0  0  0  0
    4.0884   -3.2865    3.1259 H   0  0  0  0  0  0  0  0  0  0  0  0
    3.5517   -3.2063    1.0512 C   0  0  0  0  0  0  0  0  0  0  0  0
    3.0366   -2.1475    0.6820 O   0  0  0  0  0  0  0  0  0  0  0  0
    3.2187   -4.3833    0.4883 N   0  0  0  0  0  0  0  0  0  0  0  0
    2.0553   -4.4587   -0.4055 C   0  0  0  0  0  0  0  0  0  0  0  0
    2.1526   -3.7996   -1.1726 H   0  0  0  0  0  0  0  0  0  0  0  0
    1.1069   -4.3040    0.1089 H   0  0  0  0  0  0  0  0  0  0  0  0
    2.1245   -5.8885   -0.9700 C   0  0  0  0  0  0  0  0  0  0  0  0
    1.2035   -6.3035   -0.9824 H   0  0  0  0  0  0  0  0  0  0  0  0
    2.4712   -5.8733   -1.9173 H   0  0  0  0  0  0  0  0  0  0  0  0
    3.0406   -6.6413   -0.0737 C   0  0  0  0  0  0  0  0  0  0  0  0
    2.5252   -7.0851    0.6710 H   0  0  0  0  0  0  0  0  0  0  0  0
    3.5295   -7.3580   -0.5867 H   0  0  0  0  0  0  0  0  0  0  0  0
    4.0061   -5.6281    0.4770 C   0  0  0  0  0  0  0  0  0  0  0  0
    4.2991   -5.8661    1.4026 H   0  0  0  0  0  0  0  0  0  0  0  0
    4.8095   -5.5302   -0.1115 H   0  0  0  0  0  0  0  0  0  0  0  0
  1  5  1  0
  5  6  2  0
  6  8  1  0
  8 10  2  0
 10 12  1  0
 12  5  1  0
  1  2  1  0
  1  3  1  0
  1  4  1  0
  6  7  1  0
  8  9  1  0
 10 11  1  0
 12 13  1  0
 14 18  1  0
 18 19  2  0
 18 20  1  0
 20 21  1  0
 21 24  1  0
 24 27  1  0
 27 30  1  0
 30 20  1  0
 14 15  1  0
 14 16  1  0
 14 17  1  0
 21 22  1  0
 21 23  1  0
 24 25  1  0
 24 26  1  0
 27 28  1  0
 27 29  1  0
 30 31  1  0
 30 32  1  0
M  CHG  1   8   1
M  END
>  <PDB_ID>  (158) 
pdb6jpm

>  <RESIDUE_NAME>  (158) 
HIP   PRO

>  <FRAG_NAME>  (158) 
MIMM   N1PA

>  <FRAG_ATOM_NUM>  (158) 
fragi: 13  fragj: 19

>  <atom.prop.CHAIN_ID>  (158) 
A A A A A A A A A A A A A Z Z Z Z Z Z Z Z Z Z Z Z Z Z Z Z Z Z Z

>  <atom.prop.IS_HEAVY_ATOM>  (158) 
1 0 0 0 1 1 0 1 0 1 0 1 0 1 0 0 0 1 1 1 1 0 0 1 0 0 1 0 0 1 0 0

>  <DIFUSE_FUNC_ATOM>  (158) 
n/a

>  <FINAL_SINGLE_POINT_ENERGY>  (158) 
0

>  <NONCOV_INTER_ENERGY_QM>  (158) 
0

>  <FF_Energy>  (158) 
-17.06

>  <QM_Energy>  (158) 
-25.16

>  <Index>  (158) 
997

$$$$
MIMM-pdb6jpm-B-HIP-32:N1PA-pdb6jpm-B-PRO-118
     RDKit          3D

 32 32  0  0  0  0  0  0  0  0999 V2000
   -0.6722    2.7319    0.0003 C   0  0  0  0  0  0  0  0  0  0  0  0
   -1.5419    2.7820   -0.4995 H   0  0  0  0  0  0  0  0  0  0  0  0
    0.0051    3.3049   -0.4704 H   0  0  0  0  0  0  0  0  0  0  0  0
   -0.8220    3.1203    1.0077 H   0  0  0  0  0  0  0  0  0  0  0  0
   -0.1943    1.3195   -0.0188 C   0  0  0  0  0  0  0  0  0  0  0  0
    1.0570    0.8018    0.0000 C   0  0  0  0  0  0  0  0  0  0  0  0
    1.9109    1.3135    0.0036 H   0  0  0  0  0  0  0  0  0  0  0  0
    0.9279   -0.5679    0.0140 N   0  0  0  0  0  4  0  0  0  0  0  0
    1.6845   -1.2229    0.0271 H   0  0  0  0  0  0  0  0  0  0  0  0
   -0.3572   -0.8779    0.0056 C   0  0  0  0  0  0  0  0  0  0  0  0
   -0.7337   -1.7988    0.0048 H   0  0  0  0  0  0  0  0  0  0  0  0
   -1.0570    0.2453    0.0000 N   0  0  0  0  0  0  0  0  0  0  0  0
   -2.0547    0.3062    0.0073 H   0  0  0  0  0  0  0  0  0  0  0  0
    4.7413   -3.0478    1.7360 C   0  0  0  0  0  0  0  0  0  0  0  0
    5.3143   -3.8509    1.5436 H   0  0  0  0  0  0  0  0  0  0  0  0
    5.3396   -2.1466    1.6018 H   0  0  0  0  0  0  0  0  0  0  0  0
    4.3778   -3.1199    2.7610 H   0  0  0  0  0  0  0  0  0  0  0  0
    3.5595   -3.0611    0.7605 C   0  0  0  0  0  0  0  0  0  0  0  0
    3.0194   -2.0074    0.4074 O   0  0  0  0  0  0  0  0  0  0  0  0
    3.1501   -4.2470    0.2891 N   0  0  0  0  0  0  0  0  0  0  0  0
    1.9780   -4.4205   -0.5845 C   0  0  0  0  0  0  0  0  0  0  0  0
    2.0871   -3.8875   -1.4339 H   0  0  0  0  0  0  0  0  0  0  0  0
    1.0524   -4.1508   -0.0760 H   0  0  0  0  0  0  0  0  0  0  0  0
    1.9858   -5.9162   -0.9082 C   0  0  0  0  0  0  0  0  0  0  0  0
    1.2837   -6.3980   -0.3688 H   0  0  0  0  0  0  0  0  0  0  0  0
    1.7897   -6.0676   -1.8853 H   0  0  0  0  0  0  0  0  0  0  0  0
    3.3510   -6.3961   -0.5564 C   0  0  0  0  0  0  0  0  0  0  0  0
    3.3109   -7.3625   -0.2411 H   0  0  0  0  0  0  0  0  0  0  0  0
    3.9488   -6.3811   -1.3794 H   0  0  0  0  0  0  0  0  0  0  0  0
    3.8799   -5.5078    0.5053 C   0  0  0  0  0  0  0  0  0  0  0  0
    3.6910   -5.8640    1.4237 H   0  0  0  0  0  0  0  0  0  0  0  0
    4.8678   -5.3565    0.4127 H   0  0  0  0  0  0  0  0  0  0  0  0
  1  5  1  0
  5  6  2  0
  6  8  1  0
  8 10  2  0
 10 12  1  0
 12  5  1  0
  1  2  1  0
  1  3  1  0
  1  4  1  0
  6  7  1  0
  8  9  1  0
 10 11  1  0
 12 13  1  0
 14 18  1  0
 18 19  2  0
 18 20  1  0
 20 21  1  0
 21 24  1  0
 24 27  1  0
 27 30  1  0
 30 20  1  0
 14 15  1  0
 14 16  1  0
 14 17  1  0
 21 22  1  0
 21 23  1  0
 24 25  1  0
 24 26  1  0
 27 28  1  0
 27 29  1  0
 30 31  1  0
 30 32  1  0
M  CHG  1   8   1
M  END
>  <PDB_ID>  (159) 
pdb6jpm

>  <RESIDUE_NAME>  (159) 
HIP   PRO

>  <FRAG_NAME>  (159) 
MIMM   N1PA

>  <FRAG_ATOM_NUM>  (159) 
fragi: 13  fragj: 19

>  <atom.prop.CHAIN_ID>  (159) 
A A A A A A A A A A A A A Z Z Z Z Z Z Z Z Z Z Z Z Z Z Z Z Z Z Z

>  <atom.prop.IS_HEAVY_ATOM>  (159) 
1 0 0 0 1 1 0 1 0 1 0 1 0 1 0 0 0 1 1 1 1 0 0 1 0 0 1 0 0 1 0 0

>  <DIFUSE_FUNC_ATOM>  (159) 
n/a

>  <FINAL_SINGLE_POINT_ENERGY>  (159) 
0

>  <NONCOV_INTER_ENERGY_QM>  (159) 
0

>  <FF_Energy>  (159) 
-17.12

>  <QM_Energy>  (159) 
-26.47

>  <Index>  (159) 
998

$$$$
MIMM-pdb6mtk-A-HIP-44:N1PA-pdb6mtk-A-PRO-127
     RDKit          3D

 32 32  0  0  0  0  0  0  0  0999 V2000
   -0.6798    2.7395    0.0244 C   0  0  0  0  0  0  0  0  0  0  0  0
    0.0343    3.3168    0.4314 H   0  0  0  0  0  0  0  0  0  0  0  0
   -1.5027    2.7903    0.5981 H   0  0  0  0  0  0  0  0  0  0  0  0
   -0.9185    3.1202   -0.9687 H   0  0  0  0  0  0  0  0  0  0  0  0
   -0.1952    1.3207    0.0193 C   0  0  0  0  0  0  0  0  0  0  0  0
    1.0577    0.8003    0.0000 C   0  0  0  0  0  0  0  0  0  0  0  0
    1.9109    1.3124   -0.0065 H   0  0  0  0  0  0  0  0  0  0  0  0
    0.9287   -0.5680   -0.0078 N   0  0  0  0  0  4  0  0  0  0  0  0
    1.6849   -1.2237   -0.0142 H   0  0  0  0  0  0  0  0  0  0  0  0
   -0.3569   -0.8770   -0.0079 C   0  0  0  0  0  0  0  0  0  0  0  0
   -0.7335   -1.7985   -0.0115 H   0  0  0  0  0  0  0  0  0  0  0  0
   -1.0577    0.2456    0.0000 N   0  0  0  0  0  0  0  0  0  0  0  0
   -2.0547    0.3064   -0.0073 H   0  0  0  0  0  0  0  0  0  0  0  0
   -4.1616   -2.8278   -1.1662 C   0  0  0  0  0  0  0  0  0  0  0  0
   -3.4471   -2.4510   -1.7892 H   0  0  0  0  0  0  0  0  0  0  0  0
   -4.9727   -3.2182   -1.7808 H   0  0  0  0  0  0  0  0  0  0  0  0
   -4.5266   -1.9977   -0.5616 H   0  0  0  0  0  0  0  0  0  0  0  0
   -3.4930   -3.8709   -0.2646 C   0  0  0  0  0  0  0  0  0  0  0  0
   -2.2661   -3.7729   -0.0756 O   0  0  0  0  0  0  0  0  0  0  0  0
   -4.1992   -4.8464    0.3362 N   0  0  0  0  0  0  0  0  0  0  0  0
   -3.4833   -5.8089    1.1982 C   0  0  0  0  0  0  0  0  0  0  0  0
   -3.0662   -5.3229    1.9890 H   0  0  0  0  0  0  0  0  0  0  0  0
   -2.7361   -6.3972    0.6656 H   0  0  0  0  0  0  0  0  0  0  0  0
   -4.6053   -6.7018    1.7448 C   0  0  0  0  0  0  0  0  0  0  0  0
   -4.6790   -7.5448    1.2005 H   0  0  0  0  0  0  0  0  0  0  0  0
   -4.4203   -6.9542    2.7004 H   0  0  0  0  0  0  0  0  0  0  0  0
   -5.8449   -5.8838    1.6358 C   0  0  0  0  0  0  0  0  0  0  0  0
   -6.6528   -6.4739    1.5670 H   0  0  0  0  0  0  0  0  0  0  0  0
   -5.9449   -5.2853    2.4347 H   0  0  0  0  0  0  0  0  0  0  0  0
   -5.6589   -5.0803    0.3830 C   0  0  0  0  0  0  0  0  0  0  0  0
   -5.9561   -5.5857   -0.4280 H   0  0  0  0  0  0  0  0  0  0  0  0
   -6.1493   -4.2082    0.4270 H   0  0  0  0  0  0  0  0  0  0  0  0
  1  5  1  0
  5  6  2  0
  6  8  1  0
  8 10  2  0
 10 12  1  0
 12  5  1  0
  1  2  1  0
  1  3  1  0
  1  4  1  0
  6  7  1  0
  8  9  1  0
 10 11  1  0
 12 13  1  0
 14 18  1  0
 18 19  2  0
 18 20  1  0
 20 21  1  0
 21 24  1  0
 24 27  1  0
 27 30  1  0
 30 20  1  0
 14 15  1  0
 14 16  1  0
 14 17  1  0
 21 22  1  0
 21 23  1  0
 24 25  1  0
 24 26  1  0
 27 28  1  0
 27 29  1  0
 30 31  1  0
 30 32  1  0
M  CHG  1   8   1
M  END
>  <PDB_ID>  (160) 
pdb6mtk

>  <RESIDUE_NAME>  (160) 
HIP   PRO

>  <FRAG_NAME>  (160) 
MIMM   N1PA

>  <FRAG_ATOM_NUM>  (160) 
fragi: 13  fragj: 19

>  <atom.prop.CHAIN_ID>  (160) 
A A A A A A A A A A A A A Z Z Z Z Z Z Z Z Z Z Z Z Z Z Z Z Z Z Z

>  <atom.prop.IS_HEAVY_ATOM>  (160) 
1 0 0 0 1 1 0 1 0 1 0 1 0 1 0 0 0 1 1 1 1 0 0 1 0 0 1 0 0 1 0 0

>  <DIFUSE_FUNC_ATOM>  (160) 
n/a

>  <FINAL_SINGLE_POINT_ENERGY>  (160) 
0

>  <NONCOV_INTER_ENERGY_QM>  (160) 
0

>  <FF_Energy>  (160) 
-8.38

>  <QM_Energy>  (160) 
-14.89

>  <Index>  (160) 
1008

$$$$
MIMM-pdb5k1r-A-HIP-21:N1PA-pdb5k1r-A-PRO-472
     RDKit          3D

 32 32  0  0  0  0  0  0  0  0999 V2000
   -0.6538    2.7408    0.0153 C   0  0  0  0  0  0  0  0  0  0  0  0
   -1.4835    2.7888   -0.4833 H   0  0  0  0  0  0  0  0  0  0  0  0
    0.0249    3.2808   -0.4189 H   0  0  0  0  0  0  0  0  0  0  0  0
   -0.8232    3.1280    1.0200 H   0  0  0  0  0  0  0  0  0  0  0  0
   -0.1869    1.3122    0.0016 C   0  0  0  0  0  0  0  0  0  0  0  0
    1.0592    0.7792    0.0000 C   0  0  0  0  0  0  0  0  0  0  0  0
    1.8610    1.2498    0.0021 H   0  0  0  0  0  0  0  0  0  0  0  0
    0.9169   -0.5886   -0.0002 N   0  0  0  0  0  4  0  0  0  0  0  0
    1.5609   -1.1578   -0.0039 H   0  0  0  0  0  0  0  0  0  0  0  0
   -0.3696   -0.8869    0.0037 C   0  0  0  0  0  0  0  0  0  0  0  0
   -0.7300   -1.7440   -0.0015 H   0  0  0  0  0  0  0  0  0  0  0  0
   -1.0592    0.2412   -0.0000 N   0  0  0  0  0  0  0  0  0  0  0  0
   -2.0560    0.3122   -0.0039 H   0  0  0  0  0  0  0  0  0  0  0  0
    4.1950   -3.5286    0.6938 C   0  0  0  0  0  0  0  0  0  0  0  0
    4.5795   -4.4190    0.6823 H   0  0  0  0  0  0  0  0  0  0  0  0
    4.9877   -2.7972    0.8511 H   0  0  0  0  0  0  0  0  0  0  0  0
    3.4868   -3.4733    1.5205 H   0  0  0  0  0  0  0  0  0  0  0  0
    3.4881   -3.2942   -0.6431 C   0  0  0  0  0  0  0  0  0  0  0  0
    2.7443   -2.3168   -0.7714 O   0  0  0  0  0  0  0  0  0  0  0  0
    3.6537   -4.1748   -1.6548 N   0  0  0  0  0  0  0  0  0  0  0  0
    3.0617   -3.8759   -2.9726 C   0  0  0  0  0  0  0  0  0  0  0  0
    3.4018   -3.0299   -3.3049 H   0  0  0  0  0  0  0  0  0  0  0  0
    1.9720   -3.8470   -2.9823 H   0  0  0  0  0  0  0  0  0  0  0  0
    3.5898   -5.0167   -3.8730 C   0  0  0  0  0  0  0  0  0  0  0  0
    2.8841   -5.3119   -4.4701 H   0  0  0  0  0  0  0  0  0  0  0  0
    4.3557   -4.7037   -4.3793 H   0  0  0  0  0  0  0  0  0  0  0  0
    3.9796   -6.0956   -2.9660 C   0  0  0  0  0  0  0  0  0  0  0  0
    3.2225   -6.6851   -2.8243 H   0  0  0  0  0  0  0  0  0  0  0  0
    4.7226   -6.5867   -3.3517 H   0  0  0  0  0  0  0  0  0  0  0  0
    4.3958   -5.4497   -1.6646 C   0  0  0  0  0  0  0  0  0  0  0  0
    4.1289   -6.0020   -0.9130 H   0  0  0  0  0  0  0  0  0  0  0  0
    5.3522   -5.2835   -1.6608 H   0  0  0  0  0  0  0  0  0  0  0  0
  1  5  1  0
  5  6  2  0
  6  8  1  0
  8 10  2  0
 10 12  1  0
 12  5  1  0
  1  2  1  0
  1  3  1  0
  1  4  1  0
  6  7  1  0
  8  9  1  0
 10 11  1  0
 12 13  1  0
 14 18  1  0
 18 19  2  0
 18 20  1  0
 20 21  1  0
 21 24  1  0
 24 27  1  0
 27 30  1  0
 30 20  1  0
 14 15  1  0
 14 16  1  0
 14 17  1  0
 21 22  1  0
 21 23  1  0
 24 25  1  0
 24 26  1  0
 27 28  1  0
 27 29  1  0
 30 31  1  0
 30 32  1  0
M  CHG  1   8   1
M  END
>  <PDB_ID>  (161) 
pdb5k1r

>  <RESIDUE_NAME>  (161) 
HIP   PRO

>  <FRAG_NAME>  (161) 
MIMM   N1PA

>  <FRAG_ATOM_NUM>  (161) 
fragi: 13  fragj: 19

>  <atom.prop.CHAIN_ID>  (161) 
A A A A A A A A A A A A A Z Z Z Z Z Z Z Z Z Z Z Z Z Z Z Z Z Z Z

>  <atom.prop.IS_HEAVY_ATOM>  (161) 
1 0 0 0 1 1 0 1 0 1 0 1 0 1 0 0 0 1 1 1 1 0 0 1 0 0 1 0 0 1 0 0

>  <DIFUSE_FUNC_ATOM>  (161) 
n/a

>  <FINAL_SINGLE_POINT_ENERGY>  (161) 
0

>  <NONCOV_INTER_ENERGY_QM>  (161) 
0

>  <FF_Energy>  (161) 
-14.72

>  <QM_Energy>  (161) 
-23.69

>  <Index>  (161) 
1010

$$$$
MIMM-pdb5k1r-B-HIP-21:N1PA-pdb5k1r-B-PRO-472
     RDKit          3D

 32 32  0  0  0  0  0  0  0  0999 V2000
   -0.6525    2.7316   -0.0109 C   0  0  0  0  0  0  0  0  0  0  0  0
    0.0130    3.2618    0.4555 H   0  0  0  0  0  0  0  0  0  0  0  0
   -1.4958    2.7675    0.4672 H   0  0  0  0  0  0  0  0  0  0  0  0
   -0.7962    3.1469   -1.0084 H   0  0  0  0  0  0  0  0  0  0  0  0
   -0.1864    1.3096   -0.0104 C   0  0  0  0  0  0  0  0  0  0  0  0
    1.0593    0.7773    0.0000 C   0  0  0  0  0  0  0  0  0  0  0  0
    1.8617    1.2490   -0.0017 H   0  0  0  0  0  0  0  0  0  0  0  0
    0.9179   -0.5881    0.0044 N   0  0  0  0  0  4  0  0  0  0  0  0
    1.5619   -1.1580    0.0073 H   0  0  0  0  0  0  0  0  0  0  0  0
   -0.3710   -0.8848    0.0009 C   0  0  0  0  0  0  0  0  0  0  0  0
   -0.7315   -1.7422    0.0060 H   0  0  0  0  0  0  0  0  0  0  0  0
   -1.0593    0.2434   -0.0000 N   0  0  0  0  0  0  0  0  0  0  0  0
   -2.0564    0.3137    0.0050 H   0  0  0  0  0  0  0  0  0  0  0  0
   -1.9533   -5.0151   -0.7943 C   0  0  0  0  0  0  0  0  0  0  0  0
   -1.7631   -5.9603   -0.8981 H   0  0  0  0  0  0  0  0  0  0  0  0
   -3.0292   -4.8535   -0.8613 H   0  0  0  0  0  0  0  0  0  0  0  0
   -1.4476   -4.4752   -1.5948 H   0  0  0  0  0  0  0  0  0  0  0  0
   -1.4167   -4.5645    0.5653 C   0  0  0  0  0  0  0  0  0  0  0  0
   -1.4516   -3.3669    0.8659 O   0  0  0  0  0  0  0  0  0  0  0  0
   -0.9069   -5.4753    1.4142 N   0  0  0  0  0  0  0  0  0  0  0  0
   -0.4719   -5.1271    2.7814 C   0  0  0  0  0  0  0  0  0  0  0  0
   -1.2216   -4.7723    3.2860 H   0  0  0  0  0  0  0  0  0  0  0  0
    0.3645   -4.4322    2.8559 H   0  0  0  0  0  0  0  0  0  0  0  0
   -0.0694   -6.4825    3.3775 C   0  0  0  0  0  0  0  0  0  0  0  0
    0.7227   -6.3736    3.9266 H   0  0  0  0  0  0  0  0  0  0  0  0
   -0.8036   -6.8384    3.9015 H   0  0  0  0  0  0  0  0  0  0  0  0
    0.2163   -7.3594    2.2127 C   0  0  0  0  0  0  0  0  0  0  0  0
    1.1515   -7.2729    1.9669 H   0  0  0  0  0  0  0  0  0  0  0  0
    0.0105   -8.2781    2.4434 H   0  0  0  0  0  0  0  0  0  0  0  0
   -0.6599   -6.8926    1.0989 C   0  0  0  0  0  0  0  0  0  0  0  0
   -0.1976   -6.9730    0.2506 H   0  0  0  0  0  0  0  0  0  0  0  0
   -1.4936   -7.3879    1.0971 H   0  0  0  0  0  0  0  0  0  0  0  0
  1  5  1  0
  5  6  2  0
  6  8  1  0
  8 10  2  0
 10 12  1  0
 12  5  1  0
  1  2  1  0
  1  3  1  0
  1  4  1  0
  6  7  1  0
  8  9  1  0
 10 11  1  0
 12 13  1  0
 14 18  1  0
 18 19  2  0
 18 20  1  0
 20 21  1  0
 21 24  1  0
 24 27  1  0
 27 30  1  0
 30 20  1  0
 14 15  1  0
 14 16  1  0
 14 17  1  0
 21 22  1  0
 21 23  1  0
 24 25  1  0
 24 26  1  0
 27 28  1  0
 27 29  1  0
 30 31  1  0
 30 32  1  0
M  CHG  1   8   1
M  END
>  <PDB_ID>  (162) 
pdb5k1r

>  <RESIDUE_NAME>  (162) 
HIP   PRO

>  <FRAG_NAME>  (162) 
MIMM   N1PA

>  <FRAG_ATOM_NUM>  (162) 
fragi: 13  fragj: 19

>  <atom.prop.CHAIN_ID>  (162) 
A A A A A A A A A A A A A Z Z Z Z Z Z Z Z Z Z Z Z Z Z Z Z Z Z Z

>  <atom.prop.IS_HEAVY_ATOM>  (162) 
1 0 0 0 1 1 0 1 0 1 0 1 0 1 0 0 0 1 1 1 1 0 0 1 0 0 1 0 0 1 0 0

>  <DIFUSE_FUNC_ATOM>  (162) 
n/a

>  <FINAL_SINGLE_POINT_ENERGY>  (162) 
0

>  <NONCOV_INTER_ENERGY_QM>  (162) 
0

>  <FF_Energy>  (162) 
-0.86

>  <QM_Energy>  (162) 
-19.08

>  <Index>  (162) 
1011

$$$$
MIMM-pdb5k81-D-HIP-65:N1PA-pdb5k81-D-PRO-60
     RDKit          3D

 32 32  0  0  0  0  0  0  0  0999 V2000
   -0.6655    2.7395    0.0031 C   0  0  0  0  0  0  0  0  0  0  0  0
   -0.3338    3.1837   -0.8377 H   0  0  0  0  0  0  0  0  0  0  0  0
   -0.2564    3.2118    0.7925 H   0  0  0  0  0  0  0  0  0  0  0  0
   -1.7495    2.8425    0.0533 H   0  0  0  0  0  0  0  0  0  0  0  0
   -0.1911    1.3216    0.0059 C   0  0  0  0  0  0  0  0  0  0  0  0
    1.0567    0.8000    0.0000 C   0  0  0  0  0  0  0  0  0  0  0  0
    1.9135    1.3103   -0.0017 H   0  0  0  0  0  0  0  0  0  0  0  0
    0.9262   -0.5678   -0.0036 N   0  0  0  0  0  4  0  0  0  0  0  0
    1.6823   -1.2243   -0.0084 H   0  0  0  0  0  0  0  0  0  0  0  0
   -0.3587   -0.8763   -0.0027 C   0  0  0  0  0  0  0  0  0  0  0  0
   -0.7351   -1.7983   -0.0023 H   0  0  0  0  0  0  0  0  0  0  0  0
   -1.0567    0.2444   -0.0000 N   0  0  0  0  0  0  0  0  0  0  0  0
   -2.0540    0.3089   -0.0023 H   0  0  0  0  0  0  0  0  0  0  0  0
   -1.2173   -5.5187    0.0816 C   0  0  0  0  0  0  0  0  0  0  0  0
   -0.4308   -6.1140    0.2577 H   0  0  0  0  0  0  0  0  0  0  0  0
   -1.4116   -4.9248    0.9747 H   0  0  0  0  0  0  0  0  0  0  0  0
   -2.0665   -6.1669   -0.1347 H   0  0  0  0  0  0  0  0  0  0  0  0
   -0.8530   -4.5973   -1.1033 C   0  0  0  0  0  0  0  0  0  0  0  0
   -1.2157   -3.4155   -1.1016 O   0  0  0  0  0  0  0  0  0  0  0  0
   -0.1405   -5.1364   -2.1169 N   0  0  0  0  0  0  0  0  0  0  0  0
    0.6503   -4.2802   -3.0141 C   0  0  0  0  0  0  0  0  0  0  0  0
    1.3099   -3.7053   -2.4535 H   0  0  0  0  0  0  0  0  0  0  0  0
    0.1157   -3.6461   -3.7214 H   0  0  0  0  0  0  0  0  0  0  0  0
    1.4970   -5.2948   -3.7896 C   0  0  0  0  0  0  0  0  0  0  0  0
    1.6972   -4.9523   -4.7100 H   0  0  0  0  0  0  0  0  0  0  0  0
    2.3599   -5.4693   -3.3115 H   0  0  0  0  0  0  0  0  0  0  0  0
    0.6499   -6.5070   -3.8369 C   0  0  0  0  0  0  0  0  0  0  0  0
   -0.0320   -6.4405   -4.5720 H   0  0  0  0  0  0  0  0  0  0  0  0
    1.2074   -7.3285   -3.9873 H   0  0  0  0  0  0  0  0  0  0  0  0
   -0.0215   -6.5590   -2.4922 C   0  0  0  0  0  0  0  0  0  0  0  0
   -0.9253   -6.9816   -2.5496 H   0  0  0  0  0  0  0  0  0  0  0  0
    0.5356   -7.0520   -1.8223 H   0  0  0  0  0  0  0  0  0  0  0  0
  1  5  1  0
  5  6  2  0
  6  8  1  0
  8 10  2  0
 10 12  1  0
 12  5  1  0
  1  2  1  0
  1  3  1  0
  1  4  1  0
  6  7  1  0
  8  9  1  0
 10 11  1  0
 12 13  1  0
 14 18  1  0
 18 19  2  0
 18 20  1  0
 20 21  1  0
 21 24  1  0
 24 27  1  0
 27 30  1  0
 30 20  1  0
 14 15  1  0
 14 16  1  0
 14 17  1  0
 21 22  1  0
 21 23  1  0
 24 25  1  0
 24 26  1  0
 27 28  1  0
 27 29  1  0
 30 31  1  0
 30 32  1  0
M  CHG  1   8   1
M  END
>  <PDB_ID>  (163) 
pdb5k81

>  <RESIDUE_NAME>  (163) 
HIP   PRO

>  <FRAG_NAME>  (163) 
MIMM   N1PA

>  <FRAG_ATOM_NUM>  (163) 
fragi: 13  fragj: 19

>  <atom.prop.CHAIN_ID>  (163) 
A A A A A A A A A A A A A Z Z Z Z Z Z Z Z Z Z Z Z Z Z Z Z Z Z Z

>  <atom.prop.IS_HEAVY_ATOM>  (163) 
1 0 0 0 1 1 0 1 0 1 0 1 0 1 0 0 0 1 1 1 1 0 0 1 0 0 1 0 0 1 0 0

>  <DIFUSE_FUNC_ATOM>  (163) 
n/a

>  <FINAL_SINGLE_POINT_ENERGY>  (163) 
0

>  <NONCOV_INTER_ENERGY_QM>  (163) 
0

>  <FF_Energy>  (163) 
-3.01

>  <QM_Energy>  (163) 
-17.67

>  <Index>  (163) 
1013

$$$$
MIMM-pdb6nw0-A-HIP-18:N1PA-pdb6nw0-A-PRO-15
     RDKit          3D

 32 32  0  0  0  0  0  0  0  0999 V2000
   -0.6281    2.7250    0.0146 C   0  0  0  0  0  0  0  0  0  0  0  0
   -0.0110    3.2681    0.5891 H   0  0  0  0  0  0  0  0  0  0  0  0
   -1.5539    2.7700    0.3974 H   0  0  0  0  0  0  0  0  0  0  0  0
   -0.6452    3.1608   -0.9844 H   0  0  0  0  0  0  0  0  0  0  0  0
   -0.1735    1.3142    0.0203 C   0  0  0  0  0  0  0  0  0  0  0  0
    1.0687    0.7861   -0.0000 C   0  0  0  0  0  0  0  0  0  0  0  0
    1.9284    1.2960   -0.0091 H   0  0  0  0  0  0  0  0  0  0  0  0
    0.9345   -0.5728   -0.0051 N   0  0  0  0  0  4  0  0  0  0  0  0
    1.6615   -1.2471   -0.0067 H   0  0  0  0  0  0  0  0  0  0  0  0
   -0.3915   -0.8678   -0.0088 C   0  0  0  0  0  0  0  0  0  0  0  0
   -0.7610   -1.7868   -0.0152 H   0  0  0  0  0  0  0  0  0  0  0  0
   -1.0687    0.2594    0.0000 N   0  0  0  0  0  0  0  0  0  0  0  0
   -2.0600    0.3490   -0.0076 H   0  0  0  0  0  0  0  0  0  0  0  0
    5.3279    1.9793    1.5150 C   0  0  0  0  0  0  0  0  0  0  0  0
    5.8033    2.3503    2.3049 H   0  0  0  0  0  0  0  0  0  0  0  0
    4.8251    1.0714    1.8482 H   0  0  0  0  0  0  0  0  0  0  0  0
    5.9380    1.7774    0.6346 H   0  0  0  0  0  0  0  0  0  0  0  0
    4.2569    2.9749    1.1149 C   0  0  0  0  0  0  0  0  0  0  0  0
    3.6084    2.7511    0.0928 O   0  0  0  0  0  0  0  0  0  0  0  0
    4.0551    4.1029    1.8395 N   0  0  0  0  0  0  0  0  0  0  0  0
    2.9362    4.9925    1.5204 C   0  0  0  0  0  0  0  0  0  0  0  0
    2.0535    4.5482    1.7223 H   0  0  0  0  0  0  0  0  0  0  0  0
    2.9664    5.3201    0.4812 H   0  0  0  0  0  0  0  0  0  0  0  0
    3.0739    6.1613    2.5010 C   0  0  0  0  0  0  0  0  0  0  0  0
    3.5768    6.9144    2.0867 H   0  0  0  0  0  0  0  0  0  0  0  0
    2.1813    6.4731    2.8100 H   0  0  0  0  0  0  0  0  0  0  0  0
    3.8542    5.5579    3.6368 C   0  0  0  0  0  0  0  0  0  0  0  0
    4.3429    6.2696    4.1435 H   0  0  0  0  0  0  0  0  0  0  0  0
    3.2422    5.0698    4.2607 H   0  0  0  0  0  0  0  0  0  0  0  0
    4.8301    4.5991    2.9814 C   0  0  0  0  0  0  0  0  0  0  0  0
    5.6495    5.0740    2.6767 H   0  0  0  0  0  0  0  0  0  0  0  0
    5.0725    3.8559    3.5988 H   0  0  0  0  0  0  0  0  0  0  0  0
  1  5  1  0
  5  6  2  0
  6  8  1  0
  8 10  2  0
 10 12  1  0
 12  5  1  0
  1  2  1  0
  1  3  1  0
  1  4  1  0
  6  7  1  0
  8  9  1  0
 10 11  1  0
 12 13  1  0
 14 18  1  0
 18 19  2  0
 18 20  1  0
 20 21  1  0
 21 24  1  0
 24 27  1  0
 27 30  1  0
 30 20  1  0
 14 15  1  0
 14 16  1  0
 14 17  1  0
 21 22  1  0
 21 23  1  0
 24 25  1  0
 24 26  1  0
 27 28  1  0
 27 29  1  0
 30 31  1  0
 30 32  1  0
M  CHG  1   8   1
M  END
>  <PDB_ID>  (164) 
pdb6nw0

>  <RESIDUE_NAME>  (164) 
HIP   PRO

>  <FRAG_NAME>  (164) 
MIMM   N1PA

>  <FRAG_ATOM_NUM>  (164) 
fragi: 13  fragj: 19

>  <atom.prop.CHAIN_ID>  (164) 
A A A A A A A A A A A A A Z Z Z Z Z Z Z Z Z Z Z Z Z Z Z Z Z Z Z

>  <atom.prop.IS_HEAVY_ATOM>  (164) 
1 0 0 0 1 1 0 1 0 1 0 1 0 1 0 0 0 1 1 1 1 0 0 1 0 0 1 0 0 1 0 0

>  <DIFUSE_FUNC_ATOM>  (164) 
n/a

>  <FINAL_SINGLE_POINT_ENERGY>  (164) 
0

>  <NONCOV_INTER_ENERGY_QM>  (164) 
0

>  <FF_Energy>  (164) 
-7.58

>  <QM_Energy>  (164) 
-13.7

>  <Index>  (164) 
1021

$$$$
MIMM-pdb6nes-B-HIP-201:N1PA-pdb6nes-B-PRO-256
     RDKit          3D

 32 32  0  0  0  0  0  0  0  0999 V2000
   -0.6440    2.7312   -0.0549 C   0  0  0  0  0  0  0  0  0  0  0  0
    0.0622    3.2942    0.3019 H   0  0  0  0  0  0  0  0  0  0  0  0
   -1.4392    2.8088    0.4946 H   0  0  0  0  0  0  0  0  0  0  0  0
   -0.8782    3.0532   -1.0696 H   0  0  0  0  0  0  0  0  0  0  0  0
   -0.1773    1.3117   -0.0035 C   0  0  0  0  0  0  0  0  0  0  0  0
    1.0648    0.7745   -0.0000 C   0  0  0  0  0  0  0  0  0  0  0  0
    1.8698    1.2412   -0.0009 H   0  0  0  0  0  0  0  0  0  0  0  0
    0.9141   -0.5905    0.0033 N   0  0  0  0  0  4  0  0  0  0  0  0
    1.6615   -1.2587    0.0056 H   0  0  0  0  0  0  0  0  0  0  0  0
   -0.3747   -0.8843    0.0011 C   0  0  0  0  0  0  0  0  0  0  0  0
   -0.7368   -1.7411    0.0002 H   0  0  0  0  0  0  0  0  0  0  0  0
   -1.0648    0.2454    0.0000 N   0  0  0  0  0  0  0  0  0  0  0  0
   -1.9219    0.3082    0.0010 H   0  0  0  0  0  0  0  0  0  0  0  0
   -5.6168    2.7771   -0.1703 C   0  0  0  0  0  0  0  0  0  0  0  0
   -6.5556    2.6426    0.0349 H   0  0  0  0  0  0  0  0  0  0  0  0
   -5.3330    3.7919    0.1088 H   0  0  0  0  0  0  0  0  0  0  0  0
   -5.4738    2.5880   -1.2342 H   0  0  0  0  0  0  0  0  0  0  0  0
   -4.7608    1.8258    0.6336 C   0  0  0  0  0  0  0  0  0  0  0  0
   -3.5850    1.6175    0.2905 O   0  0  0  0  0  0  0  0  0  0  0  0
   -5.3253    1.1880    1.6713 N   0  0  0  0  0  0  0  0  0  0  0  0
   -4.5351    0.2623    2.4978 C   0  0  0  0  0  0  0  0  0  0  0  0
   -3.7162    0.6956    2.7821 H   0  0  0  0  0  0  0  0  0  0  0  0
   -4.2968   -0.6792    2.0031 H   0  0  0  0  0  0  0  0  0  0  0  0
   -5.4439    0.0121    3.7154 C   0  0  0  0  0  0  0  0  0  0  0  0
   -5.3425   -0.9014    4.0241 H   0  0  0  0  0  0  0  0  0  0  0  0
   -5.2220    0.6311    4.4285 H   0  0  0  0  0  0  0  0  0  0  0  0
   -6.8635    0.2641    3.1845 C   0  0  0  0  0  0  0  0  0  0  0  0
   -7.2086   -0.5394    2.7655 H   0  0  0  0  0  0  0  0  0  0  0  0
   -7.4454    0.5362    3.9105 H   0  0  0  0  0  0  0  0  0  0  0  0
   -6.7024    1.3812    2.1693 C   0  0  0  0  0  0  0  0  0  0  0  0
   -7.3465    1.2895    1.4499 H   0  0  0  0  0  0  0  0  0  0  0  0
   -6.7992    2.2485    2.5921 H   0  0  0  0  0  0  0  0  0  0  0  0
  1  5  1  0
  5  6  2  0
  6  8  1  0
  8 10  2  0
 10 12  1  0
 12  5  1  0
  1  2  1  0
  1  3  1  0
  1  4  1  0
  6  7  1  0
  8  9  1  0
 10 11  1  0
 12 13  1  0
 14 18  1  0
 18 19  2  0
 18 20  1  0
 20 21  1  0
 21 24  1  0
 24 27  1  0
 27 30  1  0
 30 20  1  0
 14 15  1  0
 14 16  1  0
 14 17  1  0
 21 22  1  0
 21 23  1  0
 24 25  1  0
 24 26  1  0
 27 28  1  0
 27 29  1  0
 30 31  1  0
 30 32  1  0
M  CHG  1   8   1
M  END
>  <PDB_ID>  (165) 
pdb6nes

>  <RESIDUE_NAME>  (165) 
HIP   PRO

>  <FRAG_NAME>  (165) 
MIMM   N1PA

>  <FRAG_ATOM_NUM>  (165) 
fragi: 13  fragj: 19

>  <atom.prop.CHAIN_ID>  (165) 
A A A A A A A A A A A A A Z Z Z Z Z Z Z Z Z Z Z Z Z Z Z Z Z Z Z

>  <atom.prop.IS_HEAVY_ATOM>  (165) 
1 0 0 0 1 1 0 1 0 1 0 1 0 1 0 0 0 1 1 1 1 0 0 1 0 0 1 0 0 1 0 0

>  <DIFUSE_FUNC_ATOM>  (165) 
n/a

>  <FINAL_SINGLE_POINT_ENERGY>  (165) 
0

>  <NONCOV_INTER_ENERGY_QM>  (165) 
0

>  <FF_Energy>  (165) 
-14.58

>  <QM_Energy>  (165) 
-23.09

>  <Index>  (165) 
1022

$$$$
MIMM-pdb6nw0-B-HIP-18:N1PA-pdb6nw0-B-PRO-15
     RDKit          3D

 32 32  0  0  0  0  0  0  0  0999 V2000
   -0.6428    2.7267    0.0744 C   0  0  0  0  0  0  0  0  0  0  0  0
   -0.0624    3.2218    0.7337 H   0  0  0  0  0  0  0  0  0  0  0  0
   -1.5879    2.7305    0.4259 H   0  0  0  0  0  0  0  0  0  0  0  0
   -0.6183    3.2481   -0.8824 H   0  0  0  0  0  0  0  0  0  0  0  0
   -0.1744    1.3171    0.0022 C   0  0  0  0  0  0  0  0  0  0  0  0
    1.0677    0.7873    0.0000 C   0  0  0  0  0  0  0  0  0  0  0  0
    1.9274    1.2977    0.0131 H   0  0  0  0  0  0  0  0  0  0  0  0
    0.9307   -0.5678   -0.0216 N   0  0  0  0  0  4  0  0  0  0  0  0
    1.6637   -1.2430   -0.0517 H   0  0  0  0  0  0  0  0  0  0  0  0
   -0.3902   -0.8764    0.0024 C   0  0  0  0  0  0  0  0  0  0  0  0
   -0.7563   -1.7913    0.0194 H   0  0  0  0  0  0  0  0  0  0  0  0
   -1.0677    0.2548    0.0000 N   0  0  0  0  0  0  0  0  0  0  0  0
   -2.0601    0.3431   -0.0037 H   0  0  0  0  0  0  0  0  0  0  0  0
    5.2253    1.8349    1.5832 C   0  0  0  0  0  0  0  0  0  0  0  0
    5.7370    2.1720    2.3689 H   0  0  0  0  0  0  0  0  0  0  0  0
    4.7442    0.9089    1.8980 H   0  0  0  0  0  0  0  0  0  0  0  0
    5.7950    1.6939    0.6646 H   0  0  0  0  0  0  0  0  0  0  0  0
    4.1495    2.8552    1.2620 C   0  0  0  0  0  0  0  0  0  0  0  0
    3.4688    2.6684    0.2599 O   0  0  0  0  0  0  0  0  0  0  0  0
    3.9536    3.9356    2.0672 N   0  0  0  0  0  0  0  0  0  0  0  0
    2.8923    4.8986    1.7847 C   0  0  0  0  0  0  0  0  0  0  0  0
    1.9802    4.4953    1.9674 H   0  0  0  0  0  0  0  0  0  0  0  0
    2.9345    5.2850    0.7663 H   0  0  0  0  0  0  0  0  0  0  0  0
    3.1218    6.0394    2.7977 C   0  0  0  0  0  0  0  0  0  0  0  0
    3.6022    6.8062    2.3572 H   0  0  0  0  0  0  0  0  0  0  0  0
    2.2422    6.3744    3.1515 H   0  0  0  0  0  0  0  0  0  0  0  0
    3.9494    5.4449    3.8911 C   0  0  0  0  0  0  0  0  0  0  0  0
    4.5897    6.1276    4.2646 H   0  0  0  0  0  0  0  0  0  0  0  0
    3.3628    5.1183    4.6431 H   0  0  0  0  0  0  0  0  0  0  0  0
    4.7138    4.2850    3.2725 C   0  0  0  0  0  0  0  0  0  0  0  0
    5.6513    4.5595    3.0366 H   0  0  0  0  0  0  0  0  0  0  0  0
    4.7571    3.5058    3.9067 H   0  0  0  0  0  0  0  0  0  0  0  0
  1  5  1  0
  5  6  2  0
  6  8  1  0
  8 10  2  0
 10 12  1  0
 12  5  1  0
  1  2  1  0
  1  3  1  0
  1  4  1  0
  6  7  1  0
  8  9  1  0
 10 11  1  0
 12 13  1  0
 14 18  1  0
 18 19  2  0
 18 20  1  0
 20 21  1  0
 21 24  1  0
 24 27  1  0
 27 30  1  0
 30 20  1  0
 14 15  1  0
 14 16  1  0
 14 17  1  0
 21 22  1  0
 21 23  1  0
 24 25  1  0
 24 26  1  0
 27 28  1  0
 27 29  1  0
 30 31  1  0
 30 32  1  0
M  CHG  1   8   1
M  END
>  <PDB_ID>  (166) 
pdb6nw0

>  <RESIDUE_NAME>  (166) 
HIP   PRO

>  <FRAG_NAME>  (166) 
MIMM   N1PA

>  <FRAG_ATOM_NUM>  (166) 
fragi: 13  fragj: 19

>  <atom.prop.CHAIN_ID>  (166) 
A A A A A A A A A A A A A Z Z Z Z Z Z Z Z Z Z Z Z Z Z Z Z Z Z Z

>  <atom.prop.IS_HEAVY_ATOM>  (166) 
1 0 0 0 1 1 0 1 0 1 0 1 0 1 0 0 0 1 1 1 1 0 0 1 0 0 1 0 0 1 0 0

>  <DIFUSE_FUNC_ATOM>  (166) 
n/a

>  <FINAL_SINGLE_POINT_ENERGY>  (166) 
0

>  <NONCOV_INTER_ENERGY_QM>  (166) 
0

>  <FF_Energy>  (166) 
-4.94

>  <QM_Energy>  (166) 
-14.38

>  <Index>  (166) 
1023

$$$$
MIMM-pdb6ncw-A-HIP-110:N1PA-pdb6ncw-A-PRO-107
     RDKit          3D

 32 32  0  0  0  0  0  0  0  0999 V2000
   -0.6772    2.7353    0.0175 C   0  0  0  0  0  0  0  0  0  0  0  0
    0.0402    3.3148    0.4139 H   0  0  0  0  0  0  0  0  0  0  0  0
   -1.4951    2.7916    0.5962 H   0  0  0  0  0  0  0  0  0  0  0  0
   -0.9213    3.1027   -0.9793 H   0  0  0  0  0  0  0  0  0  0  0  0
   -0.1955    1.3198    0.0193 C   0  0  0  0  0  0  0  0  0  0  0  0
    1.0565    0.8020    0.0000 C   0  0  0  0  0  0  0  0  0  0  0  0
    1.9094    1.3145   -0.0032 H   0  0  0  0  0  0  0  0  0  0  0  0
    0.9275   -0.5664   -0.0129 N   0  0  0  0  0  4  0  0  0  0  0  0
    1.6851   -1.2214   -0.0260 H   0  0  0  0  0  0  0  0  0  0  0  0
   -0.3566   -0.8767   -0.0070 C   0  0  0  0  0  0  0  0  0  0  0  0
   -0.7320   -1.7994   -0.0064 H   0  0  0  0  0  0  0  0  0  0  0  0
   -1.0565    0.2440   -0.0000 N   0  0  0  0  0  0  0  0  0  0  0  0
   -2.0544    0.3048   -0.0078 H   0  0  0  0  0  0  0  0  0  0  0  0
   -0.2014   -5.4419   -0.1512 C   0  0  0  0  0  0  0  0  0  0  0  0
    0.1079   -6.3970   -0.1345 H   0  0  0  0  0  0  0  0  0  0  0  0
   -0.4905   -5.1430    0.8564 H   0  0  0  0  0  0  0  0  0  0  0  0
   -1.0519   -5.3562   -0.8276 H   0  0  0  0  0  0  0  0  0  0  0  0
    0.9513   -4.5691   -0.6517 C   0  0  0  0  0  0  0  0  0  0  0  0
    1.0835   -3.4112   -0.2460 O   0  0  0  0  0  0  0  0  0  0  0  0
    1.8132   -5.1005   -1.5168 N   0  0  0  0  0  0  0  0  0  0  0  0
    2.8822   -4.2738   -2.0848 C   0  0  0  0  0  0  0  0  0  0  0  0
    3.3921   -3.8029   -1.3576 H   0  0  0  0  0  0  0  0  0  0  0  0
    2.4740   -3.5597   -2.8001 H   0  0  0  0  0  0  0  0  0  0  0  0
    3.7976   -5.2963   -2.7687 C   0  0  0  0  0  0  0  0  0  0  0  0
    4.2273   -4.8980   -3.5775 H   0  0  0  0  0  0  0  0  0  0  0  0
    4.5013   -5.6170   -2.1381 H   0  0  0  0  0  0  0  0  0  0  0  0
    2.8672   -6.4034   -3.1455 C   0  0  0  0  0  0  0  0  0  0  0  0
    2.4203   -6.2053   -4.0259 H   0  0  0  0  0  0  0  0  0  0  0  0
    3.3693   -7.2717   -3.2323 H   0  0  0  0  0  0  0  0  0  0  0  0
    1.8505   -6.4819   -2.0360 C   0  0  0  0  0  0  0  0  0  0  0  0
    0.9530   -6.7504   -2.3807 H   0  0  0  0  0  0  0  0  0  0  0  0
    2.1381   -7.1173   -1.3195 H   0  0  0  0  0  0  0  0  0  0  0  0
  1  5  1  0
  5  6  2  0
  6  8  1  0
  8 10  2  0
 10 12  1  0
 12  5  1  0
  1  2  1  0
  1  3  1  0
  1  4  1  0
  6  7  1  0
  8  9  1  0
 10 11  1  0
 12 13  1  0
 14 18  1  0
 18 19  2  0
 18 20  1  0
 20 21  1  0
 21 24  1  0
 24 27  1  0
 27 30  1  0
 30 20  1  0
 14 15  1  0
 14 16  1  0
 14 17  1  0
 21 22  1  0
 21 23  1  0
 24 25  1  0
 24 26  1  0
 27 28  1  0
 27 29  1  0
 30 31  1  0
 30 32  1  0
M  CHG  1   8   1
M  END
>  <PDB_ID>  (167) 
pdb6ncw

>  <RESIDUE_NAME>  (167) 
HIP   PRO

>  <FRAG_NAME>  (167) 
MIMM   N1PA

>  <FRAG_ATOM_NUM>  (167) 
fragi: 13  fragj: 19

>  <atom.prop.CHAIN_ID>  (167) 
A A A A A A A A A A A A A Z Z Z Z Z Z Z Z Z Z Z Z Z Z Z Z Z Z Z

>  <atom.prop.IS_HEAVY_ATOM>  (167) 
1 0 0 0 1 1 0 1 0 1 0 1 0 1 0 0 0 1 1 1 1 0 0 1 0 0 1 0 0 1 0 0

>  <DIFUSE_FUNC_ATOM>  (167) 
n/a

>  <FINAL_SINGLE_POINT_ENERGY>  (167) 
0

>  <NONCOV_INTER_ENERGY_QM>  (167) 
0

>  <FF_Energy>  (167) 
-13.77

>  <QM_Energy>  (167) 
-23.7

>  <Index>  (167) 
1024

$$$$
MIMM-pdb6ncw-B-HIP-110:N1PA-pdb6ncw-B-PRO-107
     RDKit          3D

 32 32  0  0  0  0  0  0  0  0999 V2000
   -0.6755    2.7272   -0.0150 C   0  0  0  0  0  0  0  0  0  0  0  0
   -0.0643    3.2827    0.5567 H   0  0  0  0  0  0  0  0  0  0  0  0
   -1.5992    2.7558    0.3784 H   0  0  0  0  0  0  0  0  0  0  0  0
   -0.7037    3.1483   -1.0200 H   0  0  0  0  0  0  0  0  0  0  0  0
   -0.1957    1.3180    0.0118 C   0  0  0  0  0  0  0  0  0  0  0  0
    1.0565    0.8024    0.0000 C   0  0  0  0  0  0  0  0  0  0  0  0
    1.9098    1.3149   -0.0011 H   0  0  0  0  0  0  0  0  0  0  0  0
    0.9277   -0.5656   -0.0092 N   0  0  0  0  0  4  0  0  0  0  0  0
    1.6851   -1.2218   -0.0189 H   0  0  0  0  0  0  0  0  0  0  0  0
   -0.3562   -0.8755   -0.0042 C   0  0  0  0  0  0  0  0  0  0  0  0
   -0.7320   -1.7986   -0.0027 H   0  0  0  0  0  0  0  0  0  0  0  0
   -1.0565    0.2437   -0.0000 N   0  0  0  0  0  0  0  0  0  0  0  0
   -2.0545    0.3047   -0.0057 H   0  0  0  0  0  0  0  0  0  0  0  0
   -0.6684   -5.5614   -0.4750 C   0  0  0  0  0  0  0  0  0  0  0  0
   -0.3528   -6.5112   -0.4371 H   0  0  0  0  0  0  0  0  0  0  0  0
   -1.0618   -5.2760    0.5007 H   0  0  0  0  0  0  0  0  0  0  0  0
   -1.4448   -5.4845   -1.2361 H   0  0  0  0  0  0  0  0  0  0  0  0
    0.5200   -4.6686   -0.8274 C   0  0  0  0  0  0  0  0  0  0  0  0
    0.5703   -3.5078   -0.4315 O   0  0  0  0  0  0  0  0  0  0  0  0
    1.5098   -5.1900   -1.5349 N   0  0  0  0  0  0  0  0  0  0  0  0
    2.7156   -4.3958   -1.8049 C   0  0  0  0  0  0  0  0  0  0  0  0
    3.0985   -4.0283   -0.9445 H   0  0  0  0  0  0  0  0  0  0  0  0
    2.5237   -3.5923   -2.5160 H   0  0  0  0  0  0  0  0  0  0  0  0
    3.7011   -5.4285   -2.3636 C   0  0  0  0  0  0  0  0  0  0  0  0
    4.2572   -5.0269   -3.0941 H   0  0  0  0  0  0  0  0  0  0  0  0
    4.3052   -5.7682   -1.6404 H   0  0  0  0  0  0  0  0  0  0  0  0
    2.8321   -6.5242   -2.8939 C   0  0  0  0  0  0  0  0  0  0  0  0
    2.5530   -6.3220   -3.8413 H   0  0  0  0  0  0  0  0  0  0  0  0
    3.3345   -7.3984   -2.8949 H   0  0  0  0  0  0  0  0  0  0  0  0
    1.6469   -6.5850   -1.9856 C   0  0  0  0  0  0  0  0  0  0  0  0
    0.8233   -6.8783   -2.4702 H   0  0  0  0  0  0  0  0  0  0  0  0
    1.8085   -7.1904   -1.2053 H   0  0  0  0  0  0  0  0  0  0  0  0
  1  5  1  0
  5  6  2  0
  6  8  1  0
  8 10  2  0
 10 12  1  0
 12  5  1  0
  1  2  1  0
  1  3  1  0
  1  4  1  0
  6  7  1  0
  8  9  1  0
 10 11  1  0
 12 13  1  0
 14 18  1  0
 18 19  2  0
 18 20  1  0
 20 21  1  0
 21 24  1  0
 24 27  1  0
 27 30  1  0
 30 20  1  0
 14 15  1  0
 14 16  1  0
 14 17  1  0
 21 22  1  0
 21 23  1  0
 24 25  1  0
 24 26  1  0
 27 28  1  0
 27 29  1  0
 30 31  1  0
 30 32  1  0
M  CHG  1   8   1
M  END
>  <PDB_ID>  (168) 
pdb6ncw

>  <RESIDUE_NAME>  (168) 
HIP   PRO

>  <FRAG_NAME>  (168) 
MIMM   N1PA

>  <FRAG_ATOM_NUM>  (168) 
fragi: 13  fragj: 19

>  <atom.prop.CHAIN_ID>  (168) 
A A A A A A A A A A A A A Z Z Z Z Z Z Z Z Z Z Z Z Z Z Z Z Z Z Z

>  <atom.prop.IS_HEAVY_ATOM>  (168) 
1 0 0 0 1 1 0 1 0 1 0 1 0 1 0 0 0 1 1 1 1 0 0 1 0 0 1 0 0 1 0 0

>  <DIFUSE_FUNC_ATOM>  (168) 
n/a

>  <FINAL_SINGLE_POINT_ENERGY>  (168) 
0

>  <NONCOV_INTER_ENERGY_QM>  (168) 
0

>  <FF_Energy>  (168) 
-10.92

>  <QM_Energy>  (168) 
-22.82

>  <Index>  (168) 
1025

$$$$
MIMM-pdb6ncw-D-HIP-110:N1PA-pdb6ncw-D-PRO-107
     RDKit          3D

 32 32  0  0  0  0  0  0  0  0999 V2000
   -0.6733    2.7337    0.0096 C   0  0  0  0  0  0  0  0  0  0  0  0
   -1.6406    2.7390   -0.2619 H   0  0  0  0  0  0  0  0  0  0  0  0
   -0.1445    3.2448   -0.6746 H   0  0  0  0  0  0  0  0  0  0  0  0
   -0.5722    3.2269    0.9764 H   0  0  0  0  0  0  0  0  0  0  0  0
   -0.1927    1.3189    0.0162 C   0  0  0  0  0  0  0  0  0  0  0  0
    1.0554    0.8018    0.0000 C   0  0  0  0  0  0  0  0  0  0  0  0
    1.9110    1.3130   -0.0020 H   0  0  0  0  0  0  0  0  0  0  0  0
    0.9255   -0.5658   -0.0105 N   0  0  0  0  0  4  0  0  0  0  0  0
    1.6842   -1.2221   -0.0207 H   0  0  0  0  0  0  0  0  0  0  0  0
   -0.3571   -0.8768   -0.0054 C   0  0  0  0  0  0  0  0  0  0  0  0
   -0.7328   -1.7988   -0.0057 H   0  0  0  0  0  0  0  0  0  0  0  0
   -1.0554    0.2438   -0.0000 N   0  0  0  0  0  0  0  0  0  0  0  0
   -2.0533    0.3066   -0.0059 H   0  0  0  0  0  0  0  0  0  0  0  0
    3.6306   -4.3655    0.1940 C   0  0  0  0  0  0  0  0  0  0  0  0
    3.8475   -5.3454    0.2039 H   0  0  0  0  0  0  0  0  0  0  0  0
    3.6708   -3.9992   -0.8318 H   0  0  0  0  0  0  0  0  0  0  0  0
    4.3521   -3.8317    0.8125 H   0  0  0  0  0  0  0  0  0  0  0  0
    2.2228   -4.1763    0.7586 C   0  0  0  0  0  0  0  0  0  0  0  0
    1.5108   -3.2436    0.3701 O   0  0  0  0  0  0  0  0  0  0  0  0
    1.7885   -5.0467    1.6669 N   0  0  0  0  0  0  0  0  0  0  0  0
    0.4768   -4.8595    2.3037 C   0  0  0  0  0  0  0  0  0  0  0  0
   -0.2532   -4.8241    1.6099 H   0  0  0  0  0  0  0  0  0  0  0  0
    0.4629   -3.9646    2.9259 H   0  0  0  0  0  0  0  0  0  0  0  0
    0.2988   -6.1359    3.1371 C   0  0  0  0  0  0  0  0  0  0  0  0
   -0.1523   -5.9324    4.0063 H   0  0  0  0  0  0  0  0  0  0  0  0
   -0.2359   -6.8159    2.6366 H   0  0  0  0  0  0  0  0  0  0  0  0
    1.7056   -6.6300    3.3702 C   0  0  0  0  0  0  0  0  0  0  0  0
    2.0980   -6.1830    4.1801 H   0  0  0  0  0  0  0  0  0  0  0  0
    1.7008   -7.6235    3.5211 H   0  0  0  0  0  0  0  0  0  0  0  0
    2.4706   -6.2730    2.1301 C   0  0  0  0  0  0  0  0  0  0  0  0
    3.4294   -6.0831    2.3297 H   0  0  0  0  0  0  0  0  0  0  0  0
    2.4067   -6.9902    1.4370 H   0  0  0  0  0  0  0  0  0  0  0  0
  1  5  1  0
  5  6  2  0
  6  8  1  0
  8 10  2  0
 10 12  1  0
 12  5  1  0
  1  2  1  0
  1  3  1  0
  1  4  1  0
  6  7  1  0
  8  9  1  0
 10 11  1  0
 12 13  1  0
 14 18  1  0
 18 19  2  0
 18 20  1  0
 20 21  1  0
 21 24  1  0
 24 27  1  0
 27 30  1  0
 30 20  1  0
 14 15  1  0
 14 16  1  0
 14 17  1  0
 21 22  1  0
 21 23  1  0
 24 25  1  0
 24 26  1  0
 27 28  1  0
 27 29  1  0
 30 31  1  0
 30 32  1  0
M  CHG  1   8   1
M  END
>  <PDB_ID>  (169) 
pdb6ncw

>  <RESIDUE_NAME>  (169) 
HIP   PRO

>  <FRAG_NAME>  (169) 
MIMM   N1PA

>  <FRAG_ATOM_NUM>  (169) 
fragi: 13  fragj: 19

>  <atom.prop.CHAIN_ID>  (169) 
A A A A A A A A A A A A A Z Z Z Z Z Z Z Z Z Z Z Z Z Z Z Z Z Z Z

>  <atom.prop.IS_HEAVY_ATOM>  (169) 
1 0 0 0 1 1 0 1 0 1 0 1 0 1 0 0 0 1 1 1 1 0 0 1 0 0 1 0 0 1 0 0

>  <DIFUSE_FUNC_ATOM>  (169) 
n/a

>  <FINAL_SINGLE_POINT_ENERGY>  (169) 
0

>  <NONCOV_INTER_ENERGY_QM>  (169) 
0

>  <FF_Energy>  (169) 
-14.98

>  <QM_Energy>  (169) 
-25.08

>  <Index>  (169) 
1027

$$$$
MIMM-pdb5l12-A-HIP-36:N1PA-pdb5l12-A-PRO-68
     RDKit          3D

 32 32  0  0  0  0  0  0  0  0999 V2000
   -0.6684    2.7402    0.0079 C   0  0  0  0  0  0  0  0  0  0  0  0
   -1.1716    2.9017   -0.8516 H   0  0  0  0  0  0  0  0  0  0  0  0
    0.1388    3.3439    0.0165 H   0  0  0  0  0  0  0  0  0  0  0  0
   -1.3120    3.0012    0.8480 H   0  0  0  0  0  0  0  0  0  0  0  0
   -0.1933    1.3215    0.0145 C   0  0  0  0  0  0  0  0  0  0  0  0
    1.0564    0.8013    0.0000 C   0  0  0  0  0  0  0  0  0  0  0  0
    1.9112    1.3122   -0.0021 H   0  0  0  0  0  0  0  0  0  0  0  0
    0.9273   -0.5686   -0.0101 N   0  0  0  0  0  4  0  0  0  0  0  0
    1.6845   -1.2239   -0.0208 H   0  0  0  0  0  0  0  0  0  0  0  0
   -0.3572   -0.8770   -0.0051 C   0  0  0  0  0  0  0  0  0  0  0  0
   -0.7340   -1.7987   -0.0044 H   0  0  0  0  0  0  0  0  0  0  0  0
   -1.0564    0.2446   -0.0000 N   0  0  0  0  0  0  0  0  0  0  0  0
   -2.0541    0.3068   -0.0061 H   0  0  0  0  0  0  0  0  0  0  0  0
    3.5616   -3.4114   -2.4956 C   0  0  0  0  0  0  0  0  0  0  0  0
    3.4133   -4.2052   -3.0324 H   0  0  0  0  0  0  0  0  0  0  0  0
    3.2553   -2.5320   -3.0622 H   0  0  0  0  0  0  0  0  0  0  0  0
    4.6201   -3.3659   -2.2399 H   0  0  0  0  0  0  0  0  0  0  0  0
    2.7385   -3.5347   -1.2270 C   0  0  0  0  0  0  0  0  0  0  0  0
    2.5165   -2.5300   -0.5447 O   0  0  0  0  0  0  0  0  0  0  0  0
    2.3119   -4.7639   -0.8733 N   0  0  0  0  0  0  0  0  0  0  0  0
    1.6408   -4.8938    0.4258 C   0  0  0  0  0  0  0  0  0  0  0  0
    0.9073   -4.2644    0.5087 H   0  0  0  0  0  0  0  0  0  0  0  0
    2.3647   -4.7457    1.2271 H   0  0  0  0  0  0  0  0  0  0  0  0
    1.1111   -6.3395    0.4339 C   0  0  0  0  0  0  0  0  0  0  0  0
    1.6344   -6.8723    1.0539 H   0  0  0  0  0  0  0  0  0  0  0  0
    0.1755   -6.3412    0.6891 H   0  0  0  0  0  0  0  0  0  0  0  0
    1.2747   -6.8461   -0.9601 C   0  0  0  0  0  0  0  0  0  0  0  0
    1.4936   -7.7914   -0.9361 H   0  0  0  0  0  0  0  0  0  0  0  0
    0.4544   -6.7009   -1.4551 H   0  0  0  0  0  0  0  0  0  0  0  0
    2.3993   -6.0627   -1.5676 C   0  0  0  0  0  0  0  0  0  0  0  0
    3.2505   -6.4901   -1.3816 H   0  0  0  0  0  0  0  0  0  0  0  0
    2.2577   -5.9493   -2.5199 H   0  0  0  0  0  0  0  0  0  0  0  0
  1  5  1  0
  5  6  2  0
  6  8  1  0
  8 10  2  0
 10 12  1  0
 12  5  1  0
  1  2  1  0
  1  3  1  0
  1  4  1  0
  6  7  1  0
  8  9  1  0
 10 11  1  0
 12 13  1  0
 14 18  1  0
 18 19  2  0
 18 20  1  0
 20 21  1  0
 21 24  1  0
 24 27  1  0
 27 30  1  0
 30 20  1  0
 14 15  1  0
 14 16  1  0
 14 17  1  0
 21 22  1  0
 21 23  1  0
 24 25  1  0
 24 26  1  0
 27 28  1  0
 27 29  1  0
 30 31  1  0
 30 32  1  0
M  CHG  1   8   1
M  END
>  <PDB_ID>  (170) 
pdb5l12

>  <RESIDUE_NAME>  (170) 
HIP   PRO

>  <FRAG_NAME>  (170) 
MIMM   N1PA

>  <FRAG_ATOM_NUM>  (170) 
fragi: 13  fragj: 19

>  <atom.prop.CHAIN_ID>  (170) 
A A A A A A A A A A A A A Z Z Z Z Z Z Z Z Z Z Z Z Z Z Z Z Z Z Z

>  <atom.prop.IS_HEAVY_ATOM>  (170) 
1 0 0 0 1 1 0 1 0 1 0 1 0 1 0 0 0 1 1 1 1 0 0 1 0 0 1 0 0 1 0 0

>  <DIFUSE_FUNC_ATOM>  (170) 
n/a

>  <FINAL_SINGLE_POINT_ENERGY>  (170) 
0

>  <NONCOV_INTER_ENERGY_QM>  (170) 
0

>  <FF_Energy>  (170) 
-16.77

>  <QM_Energy>  (170) 
-24.63

>  <Index>  (170) 
1037

$$$$
MIMM-pdb5ksr-B-HIP-73:N1PA-pdb5ksr-A-PRO-191
     RDKit          3D

 32 32  0  0  0  0  0  0  0  0999 V2000
   -0.6833    2.7670    0.0205 C   0  0  0  0  0  0  0  0  0  0  0  0
   -1.6123    2.7944   -0.3480 H   0  0  0  0  0  0  0  0  0  0  0  0
   -0.0803    3.3166   -0.5577 H   0  0  0  0  0  0  0  0  0  0  0  0
   -0.6984    3.2129    1.0150 H   0  0  0  0  0  0  0  0  0  0  0  0
   -0.1961    1.3297   -0.0037 C   0  0  0  0  0  0  0  0  0  0  0  0
    1.0605    0.7993    0.0000 C   0  0  0  0  0  0  0  0  0  0  0  0
    1.9149    1.3102   -0.0001 H   0  0  0  0  0  0  0  0  0  0  0  0
    0.9333   -0.5767    0.0043 N   0  0  0  0  0  4  0  0  0  0  0  0
    1.6862   -1.2290    0.0081 H   0  0  0  0  0  0  0  0  0  0  0  0
   -0.3572   -0.8797    0.0004 C   0  0  0  0  0  0  0  0  0  0  0  0
   -0.7372   -1.8000   -0.0007 H   0  0  0  0  0  0  0  0  0  0  0  0
   -1.0605    0.2477   -0.0000 N   0  0  0  0  0  0  0  0  0  0  0  0
   -2.0563    0.3080    0.0016 H   0  0  0  0  0  0  0  0  0  0  0  0
    2.7379   -4.6361   -0.3818 C   0  0  0  0  0  0  0  0  0  0  0  0
    3.3964   -5.3738   -0.6241 H   0  0  0  0  0  0  0  0  0  0  0  0
    1.9754   -5.0592    0.2721 H   0  0  0  0  0  0  0  0  0  0  0  0
    2.2909   -4.3399   -1.3308 H   0  0  0  0  0  0  0  0  0  0  0  0
    3.5323   -3.4663    0.2375 C   0  0  0  0  0  0  0  0  0  0  0  0
    2.9764   -2.3881    0.4632 O   0  0  0  0  0  0  0  0  0  0  0  0
    4.8421   -3.6755    0.5012 N   0  0  0  0  0  0  0  0  0  0  0  0
    5.6741   -2.7304    1.2768 C   0  0  0  0  0  0  0  0  0  0  0  0
    5.1512   -2.4152    2.1157 H   0  0  0  0  0  0  0  0  0  0  0  0
    6.0918   -1.8666    0.7597 H   0  0  0  0  0  0  0  0  0  0  0  0
    6.8118   -3.6230    1.7956 C   0  0  0  0  0  0  0  0  0  0  0  0
    7.6595   -3.0963    1.8807 H   0  0  0  0  0  0  0  0  0  0  0  0
    6.5744   -4.0116    2.6864 H   0  0  0  0  0  0  0  0  0  0  0  0
    6.9407   -4.6861    0.7596 C   0  0  0  0  0  0  0  0  0  0  0  0
    7.5454   -4.3804    0.0112 H   0  0  0  0  0  0  0  0  0  0  0  0
    7.3377   -5.5233    1.1587 H   0  0  0  0  0  0  0  0  0  0  0  0
    5.5492   -4.9496    0.2458 C   0  0  0  0  0  0  0  0  0  0  0  0
    5.5522   -5.1563   -0.7312 H   0  0  0  0  0  0  0  0  0  0  0  0
    5.1098   -5.6978    0.7435 H   0  0  0  0  0  0  0  0  0  0  0  0
  1  5  1  0
  5  6  2  0
  6  8  1  0
  8 10  2  0
 10 12  1  0
 12  5  1  0
  1  2  1  0
  1  3  1  0
  1  4  1  0
  6  7  1  0
  8  9  1  0
 10 11  1  0
 12 13  1  0
 14 18  1  0
 18 19  2  0
 18 20  1  0
 20 21  1  0
 21 24  1  0
 24 27  1  0
 27 30  1  0
 30 20  1  0
 14 15  1  0
 14 16  1  0
 14 17  1  0
 21 22  1  0
 21 23  1  0
 24 25  1  0
 24 26  1  0
 27 28  1  0
 27 29  1  0
 30 31  1  0
 30 32  1  0
M  CHG  1   8   1
M  END
>  <PDB_ID>  (171) 
pdb5ksr

>  <RESIDUE_NAME>  (171) 
HIP   PRO

>  <FRAG_NAME>  (171) 
MIMM   N1PA

>  <FRAG_ATOM_NUM>  (171) 
fragi: 13  fragj: 19

>  <atom.prop.CHAIN_ID>  (171) 
A A A A A A A A A A A A A Z Z Z Z Z Z Z Z Z Z Z Z Z Z Z Z Z Z Z

>  <atom.prop.IS_HEAVY_ATOM>  (171) 
1 0 0 0 1 1 0 1 0 1 0 1 0 1 0 0 0 1 1 1 1 0 0 1 0 0 1 0 0 1 0 0

>  <DIFUSE_FUNC_ATOM>  (171) 
n/a

>  <FINAL_SINGLE_POINT_ENERGY>  (171) 
0

>  <NONCOV_INTER_ENERGY_QM>  (171) 
0

>  <FF_Energy>  (171) 
-17.37

>  <QM_Energy>  (171) 
-26.44

>  <Index>  (171) 
1040

$$$$
MIMM-pdb5ksr-A-HIP-73:N1PA-pdb5ksr-B-PRO-191
     RDKit          3D

 32 32  0  0  0  0  0  0  0  0999 V2000
   -0.6829    2.7671    0.0514 C   0  0  0  0  0  0  0  0  0  0  0  0
   -1.6073    2.8009   -0.3333 H   0  0  0  0  0  0  0  0  0  0  0  0
   -0.0709    3.3237   -0.5140 H   0  0  0  0  0  0  0  0  0  0  0  0
   -0.7128    3.2015    1.0507 H   0  0  0  0  0  0  0  0  0  0  0  0
   -0.1982    1.3282    0.0098 C   0  0  0  0  0  0  0  0  0  0  0  0
    1.0599    0.7994   -0.0000 C   0  0  0  0  0  0  0  0  0  0  0  0
    1.9130    1.3122    0.0031 H   0  0  0  0  0  0  0  0  0  0  0  0
    0.9336   -0.5747   -0.0132 N   0  0  0  0  0  4  0  0  0  0  0  0
    1.6863   -1.2281   -0.0296 H   0  0  0  0  0  0  0  0  0  0  0  0
   -0.3566   -0.8799   -0.0025 C   0  0  0  0  0  0  0  0  0  0  0  0
   -0.7355   -1.7999    0.0034 H   0  0  0  0  0  0  0  0  0  0  0  0
   -1.0599    0.2470   -0.0000 N   0  0  0  0  0  0  0  0  0  0  0  0
   -2.0570    0.3058   -0.0053 H   0  0  0  0  0  0  0  0  0  0  0  0
    3.0905   -4.3663   -0.4189 C   0  0  0  0  0  0  0  0  0  0  0  0
    3.8083   -5.0336   -0.7290 H   0  0  0  0  0  0  0  0  0  0  0  0
    2.3622   -4.9068    0.1858 H   0  0  0  0  0  0  0  0  0  0  0  0
    2.6138   -4.0366   -1.3421 H   0  0  0  0  0  0  0  0  0  0  0  0
    3.8025   -3.1859    0.2592 C   0  0  0  0  0  0  0  0  0  0  0  0
    3.2128   -2.1167    0.4492 O   0  0  0  0  0  0  0  0  0  0  0  0
    5.1009   -3.3511    0.5573 N   0  0  0  0  0  0  0  0  0  0  0  0
    5.8758   -2.3807    1.3576 C   0  0  0  0  0  0  0  0  0  0  0  0
    5.3214   -2.0745    2.1697 H   0  0  0  0  0  0  0  0  0  0  0  0
    6.2664   -1.5123    0.8271 H   0  0  0  0  0  0  0  0  0  0  0  0
    7.0410   -3.2196    1.8733 C   0  0  0  0  0  0  0  0  0  0  0  0
    7.8629   -2.6535    1.9890 H   0  0  0  0  0  0  0  0  0  0  0  0
    6.8130   -3.6429    2.7538 H   0  0  0  0  0  0  0  0  0  0  0  0
    7.2518   -4.2564    0.8215 C   0  0  0  0  0  0  0  0  0  0  0  0
    7.9291   -3.9389    0.1378 H   0  0  0  0  0  0  0  0  0  0  0  0
    7.6120   -5.1104    1.2307 H   0  0  0  0  0  0  0  0  0  0  0  0
    5.9124   -4.5161    0.1535 C   0  0  0  0  0  0  0  0  0  0  0  0
    6.0068   -4.5532   -0.8390 H   0  0  0  0  0  0  0  0  0  0  0  0
    5.5029   -5.3641    0.4857 H   0  0  0  0  0  0  0  0  0  0  0  0
  1  5  1  0
  5  6  2  0
  6  8  1  0
  8 10  2  0
 10 12  1  0
 12  5  1  0
  1  2  1  0
  1  3  1  0
  1  4  1  0
  6  7  1  0
  8  9  1  0
 10 11  1  0
 12 13  1  0
 14 18  1  0
 18 19  2  0
 18 20  1  0
 20 21  1  0
 21 24  1  0
 24 27  1  0
 27 30  1  0
 30 20  1  0
 14 15  1  0
 14 16  1  0
 14 17  1  0
 21 22  1  0
 21 23  1  0
 24 25  1  0
 24 26  1  0
 27 28  1  0
 27 29  1  0
 30 31  1  0
 30 32  1  0
M  CHG  1   8   1
M  END
>  <PDB_ID>  (172) 
pdb5ksr

>  <RESIDUE_NAME>  (172) 
HIP   PRO

>  <FRAG_NAME>  (172) 
MIMM   N1PA

>  <FRAG_ATOM_NUM>  (172) 
fragi: 13  fragj: 19

>  <atom.prop.CHAIN_ID>  (172) 
A A A A A A A A A A A A A Z Z Z Z Z Z Z Z Z Z Z Z Z Z Z Z Z Z Z

>  <atom.prop.IS_HEAVY_ATOM>  (172) 
1 0 0 0 1 1 0 1 0 1 0 1 0 1 0 0 0 1 1 1 1 0 0 1 0 0 1 0 0 1 0 0

>  <DIFUSE_FUNC_ATOM>  (172) 
n/a

>  <FINAL_SINGLE_POINT_ENERGY>  (172) 
0

>  <NONCOV_INTER_ENERGY_QM>  (172) 
0

>  <FF_Energy>  (172) 
-16.77

>  <QM_Energy>  (172) 
-26.36

>  <Index>  (172) 
1041

$$$$
MIMM-pdb5ksr-D-HIP-73:N1PA-pdb5ksr-C-PRO-191
     RDKit          3D

 32 32  0  0  0  0  0  0  0  0999 V2000
   -0.6808    2.7680   -0.0020 C   0  0  0  0  0  0  0  0  0  0  0  0
   -1.6264    2.7839   -0.3279 H   0  0  0  0  0  0  0  0  0  0  0  0
   -0.1052    3.2939   -0.6284 H   0  0  0  0  0  0  0  0  0  0  0  0
   -0.6479    3.2486    0.9757 H   0  0  0  0  0  0  0  0  0  0  0  0
   -0.1971    1.3277    0.0009 C   0  0  0  0  0  0  0  0  0  0  0  0
    1.0567    0.8013   -0.0000 C   0  0  0  0  0  0  0  0  0  0  0  0
    1.9118    1.3127   -0.0101 H   0  0  0  0  0  0  0  0  0  0  0  0
    0.9314   -0.5736    0.0169 N   0  0  0  0  0  4  0  0  0  0  0  0
    1.6861   -1.2247    0.0399 H   0  0  0  0  0  0  0  0  0  0  0  0
   -0.3562   -0.8803   -0.0034 C   0  0  0  0  0  0  0  0  0  0  0  0
   -0.7344   -1.8007   -0.0178 H   0  0  0  0  0  0  0  0  0  0  0  0
   -1.0567    0.2452    0.0000 N   0  0  0  0  0  0  0  0  0  0  0  0
   -2.0547    0.3050    0.0012 H   0  0  0  0  0  0  0  0  0  0  0  0
    2.6817   -4.7621   -0.4226 C   0  0  0  0  0  0  0  0  0  0  0  0
    3.3428   -5.4778   -0.7182 H   0  0  0  0  0  0  0  0  0  0  0  0
    1.9401   -5.2226    0.2301 H   0  0  0  0  0  0  0  0  0  0  0  0
    2.2044   -4.4171   -1.3398 H   0  0  0  0  0  0  0  0  0  0  0  0
    3.4765   -3.6217    0.2396 C   0  0  0  0  0  0  0  0  0  0  0  0
    2.9192   -2.5508    0.5189 O   0  0  0  0  0  0  0  0  0  0  0  0
    4.7897   -3.8441    0.4629 N   0  0  0  0  0  0  0  0  0  0  0  0
    5.6549   -2.9241    1.2189 C   0  0  0  0  0  0  0  0  0  0  0  0
    5.1450   -2.5319    2.0142 H   0  0  0  0  0  0  0  0  0  0  0  0
    6.1014   -2.1230    0.6299 H   0  0  0  0  0  0  0  0  0  0  0  0
    6.7448   -3.8495    1.7828 C   0  0  0  0  0  0  0  0  0  0  0  0
    7.6401   -3.4044    1.7664 H   0  0  0  0  0  0  0  0  0  0  0  0
    6.5302   -4.1342    2.7158 H   0  0  0  0  0  0  0  0  0  0  0  0
    6.7515   -5.0723    0.8500 C   0  0  0  0  0  0  0  0  0  0  0  0
    7.6215   -5.0974    0.3351 H   0  0  0  0  0  0  0  0  0  0  0  0
    6.6991   -5.9172    1.4040 H   0  0  0  0  0  0  0  0  0  0  0  0
    5.5645   -4.9680   -0.0933 C   0  0  0  0  0  0  0  0  0  0  0  0
    5.8619   -4.7657   -1.0240 H   0  0  0  0  0  0  0  0  0  0  0  0
    5.0248   -5.8081   -0.0863 H   0  0  0  0  0  0  0  0  0  0  0  0
  1  5  1  0
  5  6  2  0
  6  8  1  0
  8 10  2  0
 10 12  1  0
 12  5  1  0
  1  2  1  0
  1  3  1  0
  1  4  1  0
  6  7  1  0
  8  9  1  0
 10 11  1  0
 12 13  1  0
 14 18  1  0
 18 19  2  0
 18 20  1  0
 20 21  1  0
 21 24  1  0
 24 27  1  0
 27 30  1  0
 30 20  1  0
 14 15  1  0
 14 16  1  0
 14 17  1  0
 21 22  1  0
 21 23  1  0
 24 25  1  0
 24 26  1  0
 27 28  1  0
 27 29  1  0
 30 31  1  0
 30 32  1  0
M  CHG  1   8   1
M  END
>  <PDB_ID>  (173) 
pdb5ksr

>  <RESIDUE_NAME>  (173) 
HIP   PRO

>  <FRAG_NAME>  (173) 
MIMM   N1PA

>  <FRAG_ATOM_NUM>  (173) 
fragi: 13  fragj: 19

>  <atom.prop.CHAIN_ID>  (173) 
A A A A A A A A A A A A A Z Z Z Z Z Z Z Z Z Z Z Z Z Z Z Z Z Z Z

>  <atom.prop.IS_HEAVY_ATOM>  (173) 
1 0 0 0 1 1 0 1 0 1 0 1 0 1 0 0 0 1 1 1 1 0 0 1 0 0 1 0 0 1 0 0

>  <DIFUSE_FUNC_ATOM>  (173) 
n/a

>  <FINAL_SINGLE_POINT_ENERGY>  (173) 
0

>  <NONCOV_INTER_ENERGY_QM>  (173) 
0

>  <FF_Energy>  (173) 
-16.98

>  <QM_Energy>  (173) 
-25.43

>  <Index>  (173) 
1042

$$$$
MIMM-pdb6pgv-A-HIP-125:N1PA-pdb6pgv-A-PRO-109
     RDKit          3D

 32 32  0  0  0  0  0  0  0  0999 V2000
   -0.6610    2.7129   -0.0020 C   0  0  0  0  0  0  0  0  0  0  0  0
    0.1416    3.3163   -0.1349 H   0  0  0  0  0  0  0  0  0  0  0  0
   -1.0447    2.9146    0.9130 H   0  0  0  0  0  0  0  0  0  0  0  0
   -1.4095    2.9400   -0.7610 H   0  0  0  0  0  0  0  0  0  0  0  0
   -0.1932    1.3099   -0.0098 C   0  0  0  0  0  0  0  0  0  0  0  0
    1.0469    0.7983   -0.0000 C   0  0  0  0  0  0  0  0  0  0  0  0
    1.9047    1.3138    0.0022 H   0  0  0  0  0  0  0  0  0  0  0  0
    0.9216   -0.5583    0.0071 N   0  0  0  0  0  4  0  0  0  0  0  0
    1.6837   -1.2159    0.0139 H   0  0  0  0  0  0  0  0  0  0  0  0
   -0.3515   -0.8695    0.0028 C   0  0  0  0  0  0  0  0  0  0  0  0
   -0.7284   -1.7944    0.0027 H   0  0  0  0  0  0  0  0  0  0  0  0
   -1.0469    0.2444    0.0000 N   0  0  0  0  0  0  0  0  0  0  0  0
   -2.0491    0.3036    0.0040 H   0  0  0  0  0  0  0  0  0  0  0  0
   -3.8710   -1.7774   -2.9070 C   0  0  0  0  0  0  0  0  0  0  0  0
   -4.6014   -2.3271   -3.3292 H   0  0  0  0  0  0  0  0  0  0  0  0
   -3.6250   -0.9483   -3.5703 H   0  0  0  0  0  0  0  0  0  0  0  0
   -2.9988   -2.4100   -2.7421 H   0  0  0  0  0  0  0  0  0  0  0  0
   -4.3779   -1.2612   -1.5650 C   0  0  0  0  0  0  0  0  0  0  0  0
   -4.0098   -0.1626   -1.1365 O   0  0  0  0  0  0  0  0  0  0  0  0
   -5.2256   -2.0239   -0.8809 N   0  0  0  0  0  0  0  0  0  0  0  0
   -5.6794   -1.6000    0.4446 C   0  0  0  0  0  0  0  0  0  0  0  0
   -6.0082   -0.6453    0.4200 H   0  0  0  0  0  0  0  0  0  0  0  0
   -4.8959   -1.7205    1.1928 H   0  0  0  0  0  0  0  0  0  0  0  0
   -6.8639   -2.5315    0.7254 C   0  0  0  0  0  0  0  0  0  0  0  0
   -6.9255   -2.7381    1.7032 H   0  0  0  0  0  0  0  0  0  0  0  0
   -7.7208   -2.1143    0.4211 H   0  0  0  0  0  0  0  0  0  0  0  0
   -6.5547   -3.7609   -0.0635 C   0  0  0  0  0  0  0  0  0  0  0  0
   -5.9560   -4.3759    0.4619 H   0  0  0  0  0  0  0  0  0  0  0  0
   -7.4010   -4.2561   -0.2891 H   0  0  0  0  0  0  0  0  0  0  0  0
   -5.8663   -3.2805   -1.3103 C   0  0  0  0  0  0  0  0  0  0  0  0
   -5.1781   -3.9344   -1.6248 H   0  0  0  0  0  0  0  0  0  0  0  0
   -6.5205   -3.1062   -2.0479 H   0  0  0  0  0  0  0  0  0  0  0  0
  1  5  1  0
  5  6  2  0
  6  8  1  0
  8 10  2  0
 10 12  1  0
 12  5  1  0
  1  2  1  0
  1  3  1  0
  1  4  1  0
  6  7  1  0
  8  9  1  0
 10 11  1  0
 12 13  1  0
 14 18  1  0
 18 19  2  0
 18 20  1  0
 20 21  1  0
 21 24  1  0
 24 27  1  0
 27 30  1  0
 30 20  1  0
 14 15  1  0
 14 16  1  0
 14 17  1  0
 21 22  1  0
 21 23  1  0
 24 25  1  0
 24 26  1  0
 27 28  1  0
 27 29  1  0
 30 31  1  0
 30 32  1  0
M  CHG  1   8   1
M  END
>  <PDB_ID>  (174) 
pdb6pgv

>  <RESIDUE_NAME>  (174) 
HIP   PRO

>  <FRAG_NAME>  (174) 
MIMM   N1PA

>  <FRAG_ATOM_NUM>  (174) 
fragi: 13  fragj: 19

>  <atom.prop.CHAIN_ID>  (174) 
A A A A A A A A A A A A A Z Z Z Z Z Z Z Z Z Z Z Z Z Z Z Z Z Z Z

>  <atom.prop.IS_HEAVY_ATOM>  (174) 
1 0 0 0 1 1 0 1 0 1 0 1 0 1 0 0 0 1 1 1 1 0 0 1 0 0 1 0 0 1 0 0

>  <DIFUSE_FUNC_ATOM>  (174) 
n/a

>  <FINAL_SINGLE_POINT_ENERGY>  (174) 
0

>  <NONCOV_INTER_ENERGY_QM>  (174) 
0

>  <FF_Energy>  (174) 
-11.68

>  <QM_Energy>  (174) 
-18.23

>  <Index>  (174) 
1047

$$$$
MIMM-pdb5m9f-C-HIP-339:N1PA-pdb5m9f-B-PRO-458
     RDKit          3D

 32 32  0  0  0  0  0  0  0  0999 V2000
   -0.6817    2.7169   -0.1012 C   0  0  0  0  0  0  0  0  0  0  0  0
   -0.0999    3.3097    0.4529 H   0  0  0  0  0  0  0  0  0  0  0  0
   -1.6233    2.7674    0.2284 H   0  0  0  0  0  0  0  0  0  0  0  0
   -0.6583    3.0757   -1.1301 H   0  0  0  0  0  0  0  0  0  0  0  0
   -0.2014    1.3182    0.0136 C   0  0  0  0  0  0  0  0  0  0  0  0
    1.0523    0.8057   -0.0000 C   0  0  0  0  0  0  0  0  0  0  0  0
    1.9035    1.3219   -0.0041 H   0  0  0  0  0  0  0  0  0  0  0  0
    0.9293   -0.5631   -0.0055 N   0  0  0  0  0  4  0  0  0  0  0  0
    1.6863   -1.2164   -0.0095 H   0  0  0  0  0  0  0  0  0  0  0  0
   -0.3568   -0.8759   -0.0054 C   0  0  0  0  0  0  0  0  0  0  0  0
   -0.7279   -1.8004   -0.0081 H   0  0  0  0  0  0  0  0  0  0  0  0
   -1.0523    0.2397   -0.0000 N   0  0  0  0  0  0  0  0  0  0  0  0
   -2.0552    0.2989   -0.0060 H   0  0  0  0  0  0  0  0  0  0  0  0
    0.4907   -1.9413    3.1355 C   0  0  0  0  0  0  0  0  0  0  0  0
   -0.1779   -2.1601    2.4425 H   0  0  0  0  0  0  0  0  0  0  0  0
    0.3832   -2.6506    3.9560 H   0  0  0  0  0  0  0  0  0  0  0  0
    0.3547   -0.9181    3.4856 H   0  0  0  0  0  0  0  0  0  0  0  0
    1.8848   -2.1785    2.5402 C   0  0  0  0  0  0  0  0  0  0  0  0
    2.8220   -1.4121    2.7764 O   0  0  0  0  0  0  0  0  0  0  0  0
    2.0109   -3.2421    1.7358 N   0  0  0  0  0  0  0  0  0  0  0  0
    3.3543   -3.5944    1.1968 C   0  0  0  0  0  0  0  0  0  0  0  0
    3.9820   -3.8227    1.9665 H   0  0  0  0  0  0  0  0  0  0  0  0
    3.7897   -2.8308    0.5522 H   0  0  0  0  0  0  0  0  0  0  0  0
    3.1277   -4.8838    0.4143 C   0  0  0  0  0  0  0  0  0  0  0  0
    3.3483   -4.7422   -0.5711 H   0  0  0  0  0  0  0  0  0  0  0  0
    3.7540   -5.6144    0.7476 H   0  0  0  0  0  0  0  0  0  0  0  0
    1.7150   -5.2750    0.5901 C   0  0  0  0  0  0  0  0  0  0  0  0
    1.2440   -5.3449   -0.3215 H   0  0  0  0  0  0  0  0  0  0  0  0
    1.6507   -6.2164    0.9987 H   0  0  0  0  0  0  0  0  0  0  0  0
    0.9960   -4.2815    1.4670 C   0  0  0  0  0  0  0  0  0  0  0  0
    0.2051   -3.8841    0.9980 H   0  0  0  0  0  0  0  0  0  0  0  0
    0.6906   -4.7034    2.3243 H   0  0  0  0  0  0  0  0  0  0  0  0
  1  5  1  0
  5  6  2  0
  6  8  1  0
  8 10  2  0
 10 12  1  0
 12  5  1  0
  1  2  1  0
  1  3  1  0
  1  4  1  0
  6  7  1  0
  8  9  1  0
 10 11  1  0
 12 13  1  0
 14 18  1  0
 18 19  2  0
 18 20  1  0
 20 21  1  0
 21 24  1  0
 24 27  1  0
 27 30  1  0
 30 20  1  0
 14 15  1  0
 14 16  1  0
 14 17  1  0
 21 22  1  0
 21 23  1  0
 24 25  1  0
 24 26  1  0
 27 28  1  0
 27 29  1  0
 30 31  1  0
 30 32  1  0
M  CHG  1   8   1
M  END
>  <PDB_ID>  (175) 
pdb5m9f

>  <RESIDUE_NAME>  (175) 
HIP   PRO

>  <FRAG_NAME>  (175) 
MIMM   N1PA

>  <FRAG_ATOM_NUM>  (175) 
fragi: 13  fragj: 19

>  <atom.prop.CHAIN_ID>  (175) 
A A A A A A A A A A A A A Z Z Z Z Z Z Z Z Z Z Z Z Z Z Z Z Z Z Z

>  <atom.prop.IS_HEAVY_ATOM>  (175) 
1 0 0 0 1 1 0 1 0 1 0 1 0 1 0 0 0 1 1 1 1 0 0 1 0 0 1 0 0 1 0 0

>  <DIFUSE_FUNC_ATOM>  (175) 
n/a

>  <FINAL_SINGLE_POINT_ENERGY>  (175) 
0

>  <NONCOV_INTER_ENERGY_QM>  (175) 
0

>  <FF_Energy>  (175) 
-2.05

>  <QM_Energy>  (175) 
-7.48

>  <Index>  (175) 
1058

$$$$
MIMM-pdb5m9f-A-HIP-339:N1PA-pdb5m9f-C-PRO-458
     RDKit          3D

 32 32  0  0  0  0  0  0  0  0999 V2000
   -0.6658    2.7309   -0.0494 C   0  0  0  0  0  0  0  0  0  0  0  0
   -0.0231    3.3103    0.4631 H   0  0  0  0  0  0  0  0  0  0  0  0
   -1.5660    2.7817    0.3961 H   0  0  0  0  0  0  0  0  0  0  0  0
   -0.7467    3.0956   -1.0734 H   0  0  0  0  0  0  0  0  0  0  0  0
   -0.1866    1.3207    0.0290 C   0  0  0  0  0  0  0  0  0  0  0  0
    1.0579    0.8030   -0.0000 C   0  0  0  0  0  0  0  0  0  0  0  0
    1.9147    1.3092   -0.0113 H   0  0  0  0  0  0  0  0  0  0  0  0
    0.9219   -0.5665   -0.0096 N   0  0  0  0  0  4  0  0  0  0  0  0
    1.6788   -1.2239   -0.0146 H   0  0  0  0  0  0  0  0  0  0  0  0
   -0.3593   -0.8705   -0.0119 C   0  0  0  0  0  0  0  0  0  0  0  0
   -0.7353   -1.7979   -0.0194 H   0  0  0  0  0  0  0  0  0  0  0  0
   -1.0579    0.2407    0.0000 N   0  0  0  0  0  0  0  0  0  0  0  0
   -2.0525    0.3109   -0.0109 H   0  0  0  0  0  0  0  0  0  0  0  0
    0.4591   -2.1434    3.0724 C   0  0  0  0  0  0  0  0  0  0  0  0
   -0.2088   -2.2925    2.3622 H   0  0  0  0  0  0  0  0  0  0  0  0
    0.3505   -2.9150    3.8347 H   0  0  0  0  0  0  0  0  0  0  0  0
    0.3603   -1.1378    3.4811 H   0  0  0  0  0  0  0  0  0  0  0  0
    1.8629   -2.3585    2.4361 C   0  0  0  0  0  0  0  0  0  0  0  0
    2.8081   -1.6351    2.7144 O   0  0  0  0  0  0  0  0  0  0  0  0
    1.9971   -3.3936    1.6176 N   0  0  0  0  0  0  0  0  0  0  0  0
    3.2883   -3.8459    1.0756 C   0  0  0  0  0  0  0  0  0  0  0  0
    3.9242   -4.0659    1.8177 H   0  0  0  0  0  0  0  0  0  0  0  0
    3.6978   -3.0801    0.4168 H   0  0  0  0  0  0  0  0  0  0  0  0
    2.9463   -5.1093    0.2455 C   0  0  0  0  0  0  0  0  0  0  0  0
    3.3010   -5.0078   -0.6949 H   0  0  0  0  0  0  0  0  0  0  0  0
    3.3872   -5.9195    0.6564 H   0  0  0  0  0  0  0  0  0  0  0  0
    1.4702   -5.2325    0.2565 C   0  0  0  0  0  0  0  0  0  0  0  0
    1.1044   -5.1911   -0.7108 H   0  0  0  0  0  0  0  0  0  0  0  0
    1.1970   -6.1723    0.5915 H   0  0  0  0  0  0  0  0  0  0  0  0
    0.8384   -4.1764    1.0968 C   0  0  0  0  0  0  0  0  0  0  0  0
    0.2382   -3.5787    0.5625 H   0  0  0  0  0  0  0  0  0  0  0  0
    0.3188   -4.5637    1.8623 H   0  0  0  0  0  0  0  0  0  0  0  0
  1  5  1  0
  5  6  2  0
  6  8  1  0
  8 10  2  0
 10 12  1  0
 12  5  1  0
  1  2  1  0
  1  3  1  0
  1  4  1  0
  6  7  1  0
  8  9  1  0
 10 11  1  0
 12 13  1  0
 14 18  1  0
 18 19  2  0
 18 20  1  0
 20 21  1  0
 21 24  1  0
 24 27  1  0
 27 30  1  0
 30 20  1  0
 14 15  1  0
 14 16  1  0
 14 17  1  0
 21 22  1  0
 21 23  1  0
 24 25  1  0
 24 26  1  0
 27 28  1  0
 27 29  1  0
 30 31  1  0
 30 32  1  0
M  CHG  1   8   1
M  END
>  <PDB_ID>  (176) 
pdb5m9f

>  <RESIDUE_NAME>  (176) 
HIP   PRO

>  <FRAG_NAME>  (176) 
MIMM   N1PA

>  <FRAG_ATOM_NUM>  (176) 
fragi: 13  fragj: 19

>  <atom.prop.CHAIN_ID>  (176) 
A A A A A A A A A A A A A Z Z Z Z Z Z Z Z Z Z Z Z Z Z Z Z Z Z Z

>  <atom.prop.IS_HEAVY_ATOM>  (176) 
1 0 0 0 1 1 0 1 0 1 0 1 0 1 0 0 0 1 1 1 1 0 0 1 0 0 1 0 0 1 0 0

>  <DIFUSE_FUNC_ATOM>  (176) 
n/a

>  <FINAL_SINGLE_POINT_ENERGY>  (176) 
0

>  <NONCOV_INTER_ENERGY_QM>  (176) 
0

>  <FF_Energy>  (176) 
-0.65

>  <QM_Energy>  (176) 
-6.03

>  <Index>  (176) 
1059

$$$$
MIMM-pdb5m8l-A-HIP-75:N1PA-pdb5m8l-A-PRO-80
     RDKit          3D

 32 32  0  0  0  0  0  0  0  0999 V2000
   -0.6709    2.7376   -0.0174 C   0  0  0  0  0  0  0  0  0  0  0  0
   -1.3770    2.8254   -0.7303 H   0  0  0  0  0  0  0  0  0  0  0  0
    0.1050    3.3287   -0.2666 H   0  0  0  0  0  0  0  0  0  0  0  0
   -1.0824    3.0758    0.9337 H   0  0  0  0  0  0  0  0  0  0  0  0
   -0.1933    1.3185   -0.0032 C   0  0  0  0  0  0  0  0  0  0  0  0
    1.0552    0.7993   -0.0000 C   0  0  0  0  0  0  0  0  0  0  0  0
    1.9100    1.3118    0.0007 H   0  0  0  0  0  0  0  0  0  0  0  0
    0.9264   -0.5658    0.0034 N   0  0  0  0  0  4  0  0  0  0  0  0
    1.6836   -1.2226    0.0065 H   0  0  0  0  0  0  0  0  0  0  0  0
   -0.3562   -0.8748    0.0005 C   0  0  0  0  0  0  0  0  0  0  0  0
   -0.7330   -1.7973   -0.0002 H   0  0  0  0  0  0  0  0  0  0  0  0
   -1.0552    0.2454    0.0000 N   0  0  0  0  0  0  0  0  0  0  0  0
   -2.0534    0.3069    0.0011 H   0  0  0  0  0  0  0  0  0  0  0  0
   -2.8467   -3.2213   -2.8527 C   0  0  0  0  0  0  0  0  0  0  0  0
   -3.1158   -3.8107   -3.6191 H   0  0  0  0  0  0  0  0  0  0  0  0
   -3.7387   -2.7360   -2.4565 H   0  0  0  0  0  0  0  0  0  0  0  0
   -2.1343   -2.4704   -3.1943 H   0  0  0  0  0  0  0  0  0  0  0  0
   -2.2152   -4.1000   -1.7806 C   0  0  0  0  0  0  0  0  0  0  0  0
   -1.5969   -3.5748   -0.8473 O   0  0  0  0  0  0  0  0  0  0  0  0
   -2.3256   -5.4216   -1.8672 N   0  0  0  0  0  0  0  0  0  0  0  0
   -1.7572   -6.2937   -0.8391 C   0  0  0  0  0  0  0  0  0  0  0  0
   -1.7875   -5.8280    0.0742 H   0  0  0  0  0  0  0  0  0  0  0  0
   -0.7499   -6.6533   -1.0496 H   0  0  0  0  0  0  0  0  0  0  0  0
   -2.7445   -7.4578   -0.8266 C   0  0  0  0  0  0  0  0  0  0  0  0
   -2.2962   -8.2932   -0.4960 H   0  0  0  0  0  0  0  0  0  0  0  0
   -3.5231   -7.2498   -0.2302 H   0  0  0  0  0  0  0  0  0  0  0  0
   -3.1533   -7.5817   -2.2296 C   0  0  0  0  0  0  0  0  0  0  0  0
   -2.5130   -8.1726   -2.7487 H   0  0  0  0  0  0  0  0  0  0  0  0
   -4.0759   -7.9950   -2.3076 H   0  0  0  0  0  0  0  0  0  0  0  0
   -3.1586   -6.1843   -2.8124 C   0  0  0  0  0  0  0  0  0  0  0  0
   -2.7567   -6.1727   -3.7268 H   0  0  0  0  0  0  0  0  0  0  0  0
   -4.0853   -5.8104   -2.8488 H   0  0  0  0  0  0  0  0  0  0  0  0
  1  5  1  0
  5  6  2  0
  6  8  1  0
  8 10  2  0
 10 12  1  0
 12  5  1  0
  1  2  1  0
  1  3  1  0
  1  4  1  0
  6  7  1  0
  8  9  1  0
 10 11  1  0
 12 13  1  0
 14 18  1  0
 18 19  2  0
 18 20  1  0
 20 21  1  0
 21 24  1  0
 24 27  1  0
 27 30  1  0
 30 20  1  0
 14 15  1  0
 14 16  1  0
 14 17  1  0
 21 22  1  0
 21 23  1  0
 24 25  1  0
 24 26  1  0
 27 28  1  0
 27 29  1  0
 30 31  1  0
 30 32  1  0
M  CHG  1   8   1
M  END
>  <PDB_ID>  (177) 
pdb5m8l

>  <RESIDUE_NAME>  (177) 
HIP   PRO

>  <FRAG_NAME>  (177) 
MIMM   N1PA

>  <FRAG_ATOM_NUM>  (177) 
fragi: 13  fragj: 19

>  <atom.prop.CHAIN_ID>  (177) 
A A A A A A A A A A A A A Z Z Z Z Z Z Z Z Z Z Z Z Z Z Z Z Z Z Z

>  <atom.prop.IS_HEAVY_ATOM>  (177) 
1 0 0 0 1 1 0 1 0 1 0 1 0 1 0 0 0 1 1 1 1 0 0 1 0 0 1 0 0 1 0 0

>  <DIFUSE_FUNC_ATOM>  (177) 
n/a

>  <FINAL_SINGLE_POINT_ENERGY>  (177) 
0

>  <NONCOV_INTER_ENERGY_QM>  (177) 
0

>  <FF_Energy>  (177) 
-8.1

>  <QM_Energy>  (177) 
-18.87

>  <Index>  (177) 
1061

$$$$
MIMM-pdb5m8l-C-HIP-75:N1PA-pdb5m8l-C-PRO-80
     RDKit          3D

 32 32  0  0  0  0  0  0  0  0999 V2000
   -0.6704    2.7442   -0.0020 C   0  0  0  0  0  0  0  0  0  0  0  0
   -1.3513    2.8435   -0.7360 H   0  0  0  0  0  0  0  0  0  0  0  0
    0.1156    3.3355   -0.2143 H   0  0  0  0  0  0  0  0  0  0  0  0
   -1.1132    3.0674    0.9401 H   0  0  0  0  0  0  0  0  0  0  0  0
   -0.1952    1.3203    0.0077 C   0  0  0  0  0  0  0  0  0  0  0  0
    1.0547    0.8005   -0.0000 C   0  0  0  0  0  0  0  0  0  0  0  0
    1.9094    1.3132    0.0005 H   0  0  0  0  0  0  0  0  0  0  0  0
    0.9269   -0.5657   -0.0067 N   0  0  0  0  0  4  0  0  0  0  0  0
    1.6848   -1.2210   -0.0149 H   0  0  0  0  0  0  0  0  0  0  0  0
   -0.3554   -0.8757   -0.0028 C   0  0  0  0  0  0  0  0  0  0  0  0
   -0.7317   -1.7989   -0.0010 H   0  0  0  0  0  0  0  0  0  0  0  0
   -1.0547    0.2438    0.0000 N   0  0  0  0  0  0  0  0  0  0  0  0
   -2.0536    0.3039   -0.0037 H   0  0  0  0  0  0  0  0  0  0  0  0
   -3.3466   -3.0128   -2.7528 C   0  0  0  0  0  0  0  0  0  0  0  0
   -3.6591   -3.5093   -3.5610 H   0  0  0  0  0  0  0  0  0  0  0  0
   -4.1987   -2.4902   -2.3183 H   0  0  0  0  0  0  0  0  0  0  0  0
   -2.5548   -2.3224   -3.0434 H   0  0  0  0  0  0  0  0  0  0  0  0
   -2.8340   -4.0183   -1.7414 C   0  0  0  0  0  0  0  0  0  0  0  0
   -2.2047   -3.6111   -0.7483 O   0  0  0  0  0  0  0  0  0  0  0  0
   -3.0363   -5.2973   -1.9411 N   0  0  0  0  0  0  0  0  0  0  0  0
   -2.7522   -6.2740   -0.8905 C   0  0  0  0  0  0  0  0  0  0  0  0
   -2.8165   -5.8372    0.0262 H   0  0  0  0  0  0  0  0  0  0  0  0
   -1.7872   -6.7647   -1.0176 H   0  0  0  0  0  0  0  0  0  0  0  0
   -3.9036   -7.2706   -1.0529 C   0  0  0  0  0  0  0  0  0  0  0  0
   -3.6182   -8.1924   -0.7961 H   0  0  0  0  0  0  0  0  0  0  0  0
   -4.6926   -6.9991   -0.5060 H   0  0  0  0  0  0  0  0  0  0  0  0
   -4.2374   -7.2116   -2.5301 C   0  0  0  0  0  0  0  0  0  0  0  0
   -3.8075   -7.9945   -3.0103 H   0  0  0  0  0  0  0  0  0  0  0  0
   -5.2398   -7.2947   -2.6581 H   0  0  0  0  0  0  0  0  0  0  0  0
   -3.7322   -5.9019   -3.0759 C   0  0  0  0  0  0  0  0  0  0  0  0
   -3.1034   -6.0468   -3.8432 H   0  0  0  0  0  0  0  0  0  0  0  0
   -4.4906   -5.3192   -3.3817 H   0  0  0  0  0  0  0  0  0  0  0  0
  1  5  1  0
  5  6  2  0
  6  8  1  0
  8 10  2  0
 10 12  1  0
 12  5  1  0
  1  2  1  0
  1  3  1  0
  1  4  1  0
  6  7  1  0
  8  9  1  0
 10 11  1  0
 12 13  1  0
 14 18  1  0
 18 19  2  0
 18 20  1  0
 20 21  1  0
 21 24  1  0
 24 27  1  0
 27 30  1  0
 30 20  1  0
 14 15  1  0
 14 16  1  0
 14 17  1  0
 21 22  1  0
 21 23  1  0
 24 25  1  0
 24 26  1  0
 27 28  1  0
 27 29  1  0
 30 31  1  0
 30 32  1  0
M  CHG  1   8   1
M  END
>  <PDB_ID>  (178) 
pdb5m8l

>  <RESIDUE_NAME>  (178) 
HIP   PRO

>  <FRAG_NAME>  (178) 
MIMM   N1PA

>  <FRAG_ATOM_NUM>  (178) 
fragi: 13  fragj: 19

>  <atom.prop.CHAIN_ID>  (178) 
A A A A A A A A A A A A A Z Z Z Z Z Z Z Z Z Z Z Z Z Z Z Z Z Z Z

>  <atom.prop.IS_HEAVY_ATOM>  (178) 
1 0 0 0 1 1 0 1 0 1 0 1 0 1 0 0 0 1 1 1 1 0 0 1 0 0 1 0 0 1 0 0

>  <DIFUSE_FUNC_ATOM>  (178) 
n/a

>  <FINAL_SINGLE_POINT_ENERGY>  (178) 
0

>  <NONCOV_INTER_ENERGY_QM>  (178) 
0

>  <FF_Energy>  (178) 
-9.57

>  <QM_Energy>  (178) 
-17.02

>  <Index>  (178) 
1063

$$$$
MIMM-pdb5mus-B-HIP-1794:N1PA-pdb5mus-B-PRO-1829
     RDKit          3D

 32 32  0  0  0  0  0  0  0  0999 V2000
   -0.6764    2.7406   -0.0022 C   0  0  0  0  0  0  0  0  0  0  0  0
   -1.0890    2.9349   -0.8982 H   0  0  0  0  0  0  0  0  0  0  0  0
    0.1187    3.3418    0.1239 H   0  0  0  0  0  0  0  0  0  0  0  0
   -1.4069    2.9491    0.7795 H   0  0  0  0  0  0  0  0  0  0  0  0
   -0.1951    1.3208   -0.0053 C   0  0  0  0  0  0  0  0  0  0  0  0
    1.0568    0.8023    0.0000 C   0  0  0  0  0  0  0  0  0  0  0  0
    1.9100    1.3139    0.0017 H   0  0  0  0  0  0  0  0  0  0  0  0
    0.9270   -0.5661    0.0043 N   0  0  0  0  0  4  0  0  0  0  0  0
    1.6850   -1.2221    0.0077 H   0  0  0  0  0  0  0  0  0  0  0  0
   -0.3564   -0.8776    0.0012 C   0  0  0  0  0  0  0  0  0  0  0  0
   -0.7318   -1.8003    0.0010 H   0  0  0  0  0  0  0  0  0  0  0  0
   -1.0568    0.2432   -0.0000 N   0  0  0  0  0  0  0  0  0  0  0  0
   -2.0542    0.3042    0.0019 H   0  0  0  0  0  0  0  0  0  0  0  0
   -5.7443   -0.0250    2.3155 C   0  0  0  0  0  0  0  0  0  0  0  0
   -6.6488   -0.3989    2.0851 H   0  0  0  0  0  0  0  0  0  0  0  0
   -5.2917   -0.6456    3.0889 H   0  0  0  0  0  0  0  0  0  0  0  0
   -5.9002    1.0037    2.6401 H   0  0  0  0  0  0  0  0  0  0  0  0
   -4.8809   -0.0229    1.0564 C   0  0  0  0  0  0  0  0  0  0  0  0
   -3.7398    0.4253    1.0938 O   0  0  0  0  0  0  0  0  0  0  0  0
   -5.4147   -0.5331   -0.0634 N   0  0  0  0  0  0  0  0  0  0  0  0
   -6.7123   -1.2032   -0.2184 C   0  0  0  0  0  0  0  0  0  0  0  0
   -7.4701   -0.5347   -0.1226 H   0  0  0  0  0  0  0  0  0  0  0  0
   -6.8467   -2.0348    0.4733 H   0  0  0  0  0  0  0  0  0  0  0  0
   -6.6723   -1.7050   -1.6684 C   0  0  0  0  0  0  0  0  0  0  0  0
   -6.3422   -2.6518   -1.7010 H   0  0  0  0  0  0  0  0  0  0  0  0
   -7.5872   -1.6664   -2.0767 H   0  0  0  0  0  0  0  0  0  0  0  0
   -5.7349   -0.7831   -2.3529 C   0  0  0  0  0  0  0  0  0  0  0  0
   -5.3343   -1.2230   -3.1666 H   0  0  0  0  0  0  0  0  0  0  0  0
   -6.2129    0.0530   -2.6496 H   0  0  0  0  0  0  0  0  0  0  0  0
   -4.6818   -0.4679   -1.3429 C   0  0  0  0  0  0  0  0  0  0  0  0
   -3.9425   -1.1413   -1.3539 H   0  0  0  0  0  0  0  0  0  0  0  0
   -4.2984    0.4476   -1.4776 H   0  0  0  0  0  0  0  0  0  0  0  0
  1  5  1  0
  5  6  2  0
  6  8  1  0
  8 10  2  0
 10 12  1  0
 12  5  1  0
  1  2  1  0
  1  3  1  0
  1  4  1  0
  6  7  1  0
  8  9  1  0
 10 11  1  0
 12 13  1  0
 14 18  1  0
 18 19  2  0
 18 20  1  0
 20 21  1  0
 21 24  1  0
 24 27  1  0
 27 30  1  0
 30 20  1  0
 14 15  1  0
 14 16  1  0
 14 17  1  0
 21 22  1  0
 21 23  1  0
 24 25  1  0
 24 26  1  0
 27 28  1  0
 27 29  1  0
 30 31  1  0
 30 32  1  0
M  CHG  1   8   1
M  END
>  <PDB_ID>  (179) 
pdb5mus

>  <RESIDUE_NAME>  (179) 
HIP   PRO

>  <FRAG_NAME>  (179) 
MIMM   N1PA

>  <FRAG_ATOM_NUM>  (179) 
fragi: 13  fragj: 19

>  <atom.prop.CHAIN_ID>  (179) 
A A A A A A A A A A A A A Z Z Z Z Z Z Z Z Z Z Z Z Z Z Z Z Z Z Z

>  <atom.prop.IS_HEAVY_ATOM>  (179) 
1 0 0 0 1 1 0 1 0 1 0 1 0 1 0 0 0 1 1 1 1 0 0 1 0 0 1 0 0 1 0 0

>  <DIFUSE_FUNC_ATOM>  (179) 
n/a

>  <FINAL_SINGLE_POINT_ENERGY>  (179) 
0

>  <NONCOV_INTER_ENERGY_QM>  (179) 
0

>  <FF_Energy>  (179) 
-15.21

>  <QM_Energy>  (179) 
-22.8

>  <Index>  (179) 
1067

$$$$
MIMM-pdb5mif-A-HIP-317:N1PA-pdb5mif-A-PRO-219
     RDKit          3D

 32 32  0  0  0  0  0  0  0  0999 V2000
   -0.6765    2.7381   -0.0219 C   0  0  0  0  0  0  0  0  0  0  0  0
   -1.5359    2.7772   -0.5440 H   0  0  0  0  0  0  0  0  0  0  0  0
    0.0092    3.3016   -0.4970 H   0  0  0  0  0  0  0  0  0  0  0  0
   -0.8474    3.1532    0.9713 H   0  0  0  0  0  0  0  0  0  0  0  0
   -0.1950    1.3210   -0.0130 C   0  0  0  0  0  0  0  0  0  0  0  0
    1.0563    0.8014    0.0000 C   0  0  0  0  0  0  0  0  0  0  0  0
    1.9106    1.3138    0.0096 H   0  0  0  0  0  0  0  0  0  0  0  0
    0.9271   -0.5667   -0.0013 N   0  0  0  0  0  4  0  0  0  0  0  0
    1.6849   -1.2227   -0.0070 H   0  0  0  0  0  0  0  0  0  0  0  0
   -0.3567   -0.8764    0.0052 C   0  0  0  0  0  0  0  0  0  0  0  0
   -0.7321   -1.7993    0.0143 H   0  0  0  0  0  0  0  0  0  0  0  0
   -1.0563    0.2435   -0.0000 N   0  0  0  0  0  0  0  0  0  0  0  0
   -2.0543    0.3049    0.0043 H   0  0  0  0  0  0  0  0  0  0  0  0
   -3.2627   -2.8284    3.5080 C   0  0  0  0  0  0  0  0  0  0  0  0
   -4.2549   -2.8695    3.3341 H   0  0  0  0  0  0  0  0  0  0  0  0
   -3.1038   -2.9988    4.5727 H   0  0  0  0  0  0  0  0  0  0  0  0
   -2.9521   -1.8341    3.1869 H   0  0  0  0  0  0  0  0  0  0  0  0
   -2.5811   -3.8957    2.6572 C   0  0  0  0  0  0  0  0  0  0  0  0
   -1.7038   -3.5917    1.8441 O   0  0  0  0  0  0  0  0  0  0  0  0
   -2.9584   -5.1605    2.8731 N   0  0  0  0  0  0  0  0  0  0  0  0
   -2.2327   -6.2624    2.2467 C   0  0  0  0  0  0  0  0  0  0  0  0
   -1.2372   -6.1715    2.4124 H   0  0  0  0  0  0  0  0  0  0  0  0
   -2.4441   -6.3365    1.1799 H   0  0  0  0  0  0  0  0  0  0  0  0
   -2.7692   -7.4896    2.9772 C   0  0  0  0  0  0  0  0  0  0  0  0
   -2.7317   -8.2971    2.3881 H   0  0  0  0  0  0  0  0  0  0  0  0
   -2.2479   -7.6621    3.8123 H   0  0  0  0  0  0  0  0  0  0  0  0
   -4.1754   -7.1186    3.2888 C   0  0  0  0  0  0  0  0  0  0  0  0
   -4.7784   -7.3129    2.5064 H   0  0  0  0  0  0  0  0  0  0  0  0
   -4.5128   -7.6349    4.0852 H   0  0  0  0  0  0  0  0  0  0  0  0
   -4.1565   -5.6358    3.5883 C   0  0  0  0  0  0  0  0  0  0  0  0
   -4.9768   -5.1856    3.2395 H   0  0  0  0  0  0  0  0  0  0  0  0
   -4.0721   -5.4653    4.5698 H   0  0  0  0  0  0  0  0  0  0  0  0
  1  5  1  0
  5  6  2  0
  6  8  1  0
  8 10  2  0
 10 12  1  0
 12  5  1  0
  1  2  1  0
  1  3  1  0
  1  4  1  0
  6  7  1  0
  8  9  1  0
 10 11  1  0
 12 13  1  0
 14 18  1  0
 18 19  2  0
 18 20  1  0
 20 21  1  0
 21 24  1  0
 24 27  1  0
 27 30  1  0
 30 20  1  0
 14 15  1  0
 14 16  1  0
 14 17  1  0
 21 22  1  0
 21 23  1  0
 24 25  1  0
 24 26  1  0
 27 28  1  0
 27 29  1  0
 30 31  1  0
 30 32  1  0
M  CHG  1   8   1
M  END
>  <PDB_ID>  (180) 
pdb5mif

>  <RESIDUE_NAME>  (180) 
HIP   PRO

>  <FRAG_NAME>  (180) 
MIMM   N1PA

>  <FRAG_ATOM_NUM>  (180) 
fragi: 13  fragj: 19

>  <atom.prop.CHAIN_ID>  (180) 
A A A A A A A A A A A A A Z Z Z Z Z Z Z Z Z Z Z Z Z Z Z Z Z Z Z

>  <atom.prop.IS_HEAVY_ATOM>  (180) 
1 0 0 0 1 1 0 1 0 1 0 1 0 1 0 0 0 1 1 1 1 0 0 1 0 0 1 0 0 1 0 0

>  <DIFUSE_FUNC_ATOM>  (180) 
n/a

>  <FINAL_SINGLE_POINT_ENERGY>  (180) 
0

>  <NONCOV_INTER_ENERGY_QM>  (180) 
0

>  <FF_Energy>  (180) 
-9.17

>  <QM_Energy>  (180) 
-14.37

>  <Index>  (180) 
1078

$$$$
MIMM-pdb5olj-A-HIP-700:N1PA-pdb5olj-A-PRO-618
     RDKit          3D

 32 32  0  0  0  0  0  0  0  0999 V2000
   -0.6705    2.7301    0.0033 C   0  0  0  0  0  0  0  0  0  0  0  0
   -1.1296    2.8999   -0.8765 H   0  0  0  0  0  0  0  0  0  0  0  0
    0.1314    3.3356    0.0643 H   0  0  0  0  0  0  0  0  0  0  0  0
   -1.3573    2.9671    0.8158 H   0  0  0  0  0  0  0  0  0  0  0  0
   -0.1929    1.3170    0.0182 C   0  0  0  0  0  0  0  0  0  0  0  0
    1.0564    0.7966    0.0000 C   0  0  0  0  0  0  0  0  0  0  0  0
    1.9120    1.3101   -0.0057 H   0  0  0  0  0  0  0  0  0  0  0  0
    0.9294   -0.5692   -0.0075 N   0  0  0  0  0  4  0  0  0  0  0  0
    1.6825   -1.2264   -0.0133 H   0  0  0  0  0  0  0  0  0  0  0  0
   -0.3571   -0.8739   -0.0072 C   0  0  0  0  0  0  0  0  0  0  0  0
   -0.7366   -1.7948   -0.0107 H   0  0  0  0  0  0  0  0  0  0  0  0
   -1.0564    0.2505   -0.0000 N   0  0  0  0  0  0  0  0  0  0  0  0
   -2.0532    0.3108   -0.0074 H   0  0  0  0  0  0  0  0  0  0  0  0
   -3.5310   -3.0974    2.5266 C   0  0  0  0  0  0  0  0  0  0  0  0
   -4.4897   -2.9618    2.2190 H   0  0  0  0  0  0  0  0  0  0  0  0
   -3.5262   -3.3069    3.5963 H   0  0  0  0  0  0  0  0  0  0  0  0
   -3.0258   -2.1490    2.3437 H   0  0  0  0  0  0  0  0  0  0  0  0
   -2.9152   -4.2405    1.6450 C   0  0  0  0  0  0  0  0  0  0  0  0
   -1.9997   -3.9850    0.8412 O   0  0  0  0  0  0  0  0  0  0  0  0
   -3.4034   -5.5001    1.8186 N   0  0  0  0  0  0  0  0  0  0  0  0
   -2.8104   -6.6337    1.1134 C   0  0  0  0  0  0  0  0  0  0  0  0
   -1.8004   -6.6138    1.1908 H   0  0  0  0  0  0  0  0  0  0  0  0
   -3.1158   -6.6715    0.0677 H   0  0  0  0  0  0  0  0  0  0  0  0
   -3.3798   -7.8375    1.8464 C   0  0  0  0  0  0  0  0  0  0  0  0
   -3.4314   -8.6333    1.2484 H   0  0  0  0  0  0  0  0  0  0  0  0
   -2.8423   -8.0556    2.6566 H   0  0  0  0  0  0  0  0  0  0  0  0
   -4.7624   -7.3784    2.2353 C   0  0  0  0  0  0  0  0  0  0  0  0
   -5.3955   -7.4883    1.4721 H   0  0  0  0  0  0  0  0  0  0  0  0
   -5.0918   -7.8919    3.0245 H   0  0  0  0  0  0  0  0  0  0  0  0
   -4.5928   -5.9046    2.5854 C   0  0  0  0  0  0  0  0  0  0  0  0
   -5.3934   -5.3767    2.3048 H   0  0  0  0  0  0  0  0  0  0  0  0
   -4.4410   -5.7855    3.5670 H   0  0  0  0  0  0  0  0  0  0  0  0
  1  5  1  0
  5  6  2  0
  6  8  1  0
  8 10  2  0
 10 12  1  0
 12  5  1  0
  1  2  1  0
  1  3  1  0
  1  4  1  0
  6  7  1  0
  8  9  1  0
 10 11  1  0
 12 13  1  0
 14 18  1  0
 18 19  2  0
 18 20  1  0
 20 21  1  0
 21 24  1  0
 24 27  1  0
 27 30  1  0
 30 20  1  0
 14 15  1  0
 14 16  1  0
 14 17  1  0
 21 22  1  0
 21 23  1  0
 24 25  1  0
 24 26  1  0
 27 28  1  0
 27 29  1  0
 30 31  1  0
 30 32  1  0
M  CHG  1   8   1
M  END
>  <PDB_ID>  (181) 
pdb5olj

>  <RESIDUE_NAME>  (181) 
HIP   PRO

>  <FRAG_NAME>  (181) 
MIMM   N1PA

>  <FRAG_ATOM_NUM>  (181) 
fragi: 13  fragj: 19

>  <atom.prop.CHAIN_ID>  (181) 
A A A A A A A A A A A A A Z Z Z Z Z Z Z Z Z Z Z Z Z Z Z Z Z Z Z

>  <atom.prop.IS_HEAVY_ATOM>  (181) 
1 0 0 0 1 1 0 1 0 1 0 1 0 1 0 0 0 1 1 1 1 0 0 1 0 0 1 0 0 1 0 0

>  <DIFUSE_FUNC_ATOM>  (181) 
n/a

>  <FINAL_SINGLE_POINT_ENERGY>  (181) 
0

>  <NONCOV_INTER_ENERGY_QM>  (181) 
0

>  <FF_Energy>  (181) 
-8.4

>  <QM_Energy>  (181) 
-14.0

>  <Index>  (181) 
1089

$$$$
MIMM-pdb5tev-A-HIP-47:N1PA-pdb5tev-A-PRO-139
     RDKit          3D

 32 32  0  0  0  0  0  0  0  0999 V2000
   -0.6667    2.7409   -0.0184 C   0  0  0  0  0  0  0  0  0  0  0  0
    0.0467    3.3231    0.3823 H   0  0  0  0  0  0  0  0  0  0  0  0
   -1.4963    2.8123    0.5431 H   0  0  0  0  0  0  0  0  0  0  0  0
   -0.8921    3.1031   -1.0215 H   0  0  0  0  0  0  0  0  0  0  0  0
   -0.1936    1.3211    0.0107 C   0  0  0  0  0  0  0  0  0  0  0  0
    1.0589    0.7990    0.0000 C   0  0  0  0  0  0  0  0  0  0  0  0
    1.9128    1.3118   -0.0041 H   0  0  0  0  0  0  0  0  0  0  0  0
    0.9283   -0.5676   -0.0034 N   0  0  0  0  0  4  0  0  0  0  0  0
    1.6825   -1.2263   -0.0061 H   0  0  0  0  0  0  0  0  0  0  0  0
   -0.3594   -0.8763   -0.0048 C   0  0  0  0  0  0  0  0  0  0  0  0
   -0.7347   -1.7983   -0.0073 H   0  0  0  0  0  0  0  0  0  0  0  0
   -1.0589    0.2458   -0.0000 N   0  0  0  0  0  0  0  0  0  0  0  0
   -2.0552    0.3084   -0.0037 H   0  0  0  0  0  0  0  0  0  0  0  0
   -4.0430   -3.0545   -1.2488 C   0  0  0  0  0  0  0  0  0  0  0  0
   -3.3884   -2.8667   -1.9986 H   0  0  0  0  0  0  0  0  0  0  0  0
   -4.9563   -3.4541   -1.6896 H   0  0  0  0  0  0  0  0  0  0  0  0
   -4.2123   -2.0902   -0.7698 H   0  0  0  0  0  0  0  0  0  0  0  0
   -3.3700   -4.0291   -0.2692 C   0  0  0  0  0  0  0  0  0  0  0  0
   -2.1315   -4.0193   -0.2025 O   0  0  0  0  0  0  0  0  0  0  0  0
   -4.0981   -4.8991    0.4763 N   0  0  0  0  0  0  0  0  0  0  0  0
   -3.3856   -5.8128    1.3876 C   0  0  0  0  0  0  0  0  0  0  0  0
   -2.8987   -5.2793    2.1056 H   0  0  0  0  0  0  0  0  0  0  0  0
   -2.7020   -6.4907    0.8765 H   0  0  0  0  0  0  0  0  0  0  0  0
   -4.5178   -6.5787    2.0888 C   0  0  0  0  0  0  0  0  0  0  0  0
   -4.6836   -7.4547    1.6060 H   0  0  0  0  0  0  0  0  0  0  0  0
   -4.2372   -6.8061    3.0360 H   0  0  0  0  0  0  0  0  0  0  0  0
   -5.6579   -5.7059    2.0485 C   0  0  0  0  0  0  0  0  0  0  0  0
   -6.5280   -6.2043    2.1019 H   0  0  0  0  0  0  0  0  0  0  0  0
   -5.6375   -5.0113    2.7730 H   0  0  0  0  0  0  0  0  0  0  0  0
   -5.5541   -5.0138    0.6823 C   0  0  0  0  0  0  0  0  0  0  0  0
   -5.9712   -5.5720   -0.0282 H   0  0  0  0  0  0  0  0  0  0  0  0
   -5.9832   -4.1150    0.7090 H   0  0  0  0  0  0  0  0  0  0  0  0
  1  5  1  0
  5  6  2  0
  6  8  1  0
  8 10  2  0
 10 12  1  0
 12  5  1  0
  1  2  1  0
  1  3  1  0
  1  4  1  0
  6  7  1  0
  8  9  1  0
 10 11  1  0
 12 13  1  0
 14 18  1  0
 18 19  2  0
 18 20  1  0
 20 21  1  0
 21 24  1  0
 24 27  1  0
 27 30  1  0
 30 20  1  0
 14 15  1  0
 14 16  1  0
 14 17  1  0
 21 22  1  0
 21 23  1  0
 24 25  1  0
 24 26  1  0
 27 28  1  0
 27 29  1  0
 30 31  1  0
 30 32  1  0
M  CHG  1   8   1
M  END
>  <PDB_ID>  (182) 
pdb5tev

>  <RESIDUE_NAME>  (182) 
HIP   PRO

>  <FRAG_NAME>  (182) 
MIMM   N1PA

>  <FRAG_ATOM_NUM>  (182) 
fragi: 13  fragj: 19

>  <atom.prop.CHAIN_ID>  (182) 
A A A A A A A A A A A A A Z Z Z Z Z Z Z Z Z Z Z Z Z Z Z Z Z Z Z

>  <atom.prop.IS_HEAVY_ATOM>  (182) 
1 0 0 0 1 1 0 1 0 1 0 1 0 1 0 0 0 1 1 1 1 0 0 1 0 0 1 0 0 1 0 0

>  <DIFUSE_FUNC_ATOM>  (182) 
n/a

>  <FINAL_SINGLE_POINT_ENERGY>  (182) 
0

>  <NONCOV_INTER_ENERGY_QM>  (182) 
0

>  <FF_Energy>  (182) 
-7.41

>  <QM_Energy>  (182) 
-12.83

>  <Index>  (182) 
1102

$$$$
MIMM-pdb5tev-B-HIP-47:N1PA-pdb5tev-B-PRO-139
     RDKit          3D

 32 32  0  0  0  0  0  0  0  0999 V2000
   -0.6748    2.7414   -0.0146 C   0  0  0  0  0  0  0  0  0  0  0  0
    0.0482    3.3254    0.3686 H   0  0  0  0  0  0  0  0  0  0  0  0
   -1.4860    2.8080    0.5745 H   0  0  0  0  0  0  0  0  0  0  0  0
   -0.9315    3.1044   -1.0098 H   0  0  0  0  0  0  0  0  0  0  0  0
   -0.1939    1.3211    0.0045 C   0  0  0  0  0  0  0  0  0  0  0  0
    1.0550    0.8026   -0.0000 C   0  0  0  0  0  0  0  0  0  0  0  0
    1.9102    1.3134   -0.0003 H   0  0  0  0  0  0  0  0  0  0  0  0
    0.9266   -0.5663   -0.0022 N   0  0  0  0  0  4  0  0  0  0  0  0
    1.6846   -1.2215   -0.0044 H   0  0  0  0  0  0  0  0  0  0  0  0
   -0.3581   -0.8785   -0.0020 C   0  0  0  0  0  0  0  0  0  0  0  0
   -0.7327   -1.7999   -0.0023 H   0  0  0  0  0  0  0  0  0  0  0  0
   -1.0550    0.2425    0.0000 N   0  0  0  0  0  0  0  0  0  0  0  0
   -2.0537    0.3052   -0.0024 H   0  0  0  0  0  0  0  0  0  0  0  0
   -4.2781   -3.0053   -1.2344 C   0  0  0  0  0  0  0  0  0  0  0  0
   -3.6309   -2.8431   -2.0054 H   0  0  0  0  0  0  0  0  0  0  0  0
   -5.2096   -3.3873   -1.6522 H   0  0  0  0  0  0  0  0  0  0  0  0
   -4.4151   -2.0232   -0.7819 H   0  0  0  0  0  0  0  0  0  0  0  0
   -3.5999   -3.9491   -0.2433 C   0  0  0  0  0  0  0  0  0  0  0  0
   -2.3626   -3.8736   -0.1479 O   0  0  0  0  0  0  0  0  0  0  0  0
   -4.2893   -4.8551    0.4827 N   0  0  0  0  0  0  0  0  0  0  0  0
   -3.5273   -5.7717    1.3560 C   0  0  0  0  0  0  0  0  0  0  0  0
   -3.0176   -5.2398    2.0569 H   0  0  0  0  0  0  0  0  0  0  0  0
   -2.8574   -6.4343    0.8080 H   0  0  0  0  0  0  0  0  0  0  0  0
   -4.6186   -6.5609    2.1018 C   0  0  0  0  0  0  0  0  0  0  0  0
   -4.8015   -7.4296    1.6262 H   0  0  0  0  0  0  0  0  0  0  0  0
   -4.3133   -6.7714    3.0380 H   0  0  0  0  0  0  0  0  0  0  0  0
   -5.7973   -5.6819    2.0996 C   0  0  0  0  0  0  0  0  0  0  0  0
   -6.6488   -6.2081    2.1677 H   0  0  0  0  0  0  0  0  0  0  0  0
   -5.7628   -5.0192    2.8520 H   0  0  0  0  0  0  0  0  0  0  0  0
   -5.7382   -4.9551    0.7606 C   0  0  0  0  0  0  0  0  0  0  0  0
   -6.1984   -5.4797    0.0478 H   0  0  0  0  0  0  0  0  0  0  0  0
   -6.1488   -4.0462    0.8272 H   0  0  0  0  0  0  0  0  0  0  0  0
  1  5  1  0
  5  6  2  0
  6  8  1  0
  8 10  2  0
 10 12  1  0
 12  5  1  0
  1  2  1  0
  1  3  1  0
  1  4  1  0
  6  7  1  0
  8  9  1  0
 10 11  1  0
 12 13  1  0
 14 18  1  0
 18 19  2  0
 18 20  1  0
 20 21  1  0
 21 24  1  0
 24 27  1  0
 27 30  1  0
 30 20  1  0
 14 15  1  0
 14 16  1  0
 14 17  1  0
 21 22  1  0
 21 23  1  0
 24 25  1  0
 24 26  1  0
 27 28  1  0
 27 29  1  0
 30 31  1  0
 30 32  1  0
M  CHG  1   8   1
M  END
>  <PDB_ID>  (183) 
pdb5tev

>  <RESIDUE_NAME>  (183) 
HIP   PRO

>  <FRAG_NAME>  (183) 
MIMM   N1PA

>  <FRAG_ATOM_NUM>  (183) 
fragi: 13  fragj: 19

>  <atom.prop.CHAIN_ID>  (183) 
A A A A A A A A A A A A A Z Z Z Z Z Z Z Z Z Z Z Z Z Z Z Z Z Z Z

>  <atom.prop.IS_HEAVY_ATOM>  (183) 
1 0 0 0 1 1 0 1 0 1 0 1 0 1 0 0 0 1 1 1 1 0 0 1 0 0 1 0 0 1 0 0

>  <DIFUSE_FUNC_ATOM>  (183) 
n/a

>  <FINAL_SINGLE_POINT_ENERGY>  (183) 
0

>  <NONCOV_INTER_ENERGY_QM>  (183) 
0

>  <FF_Energy>  (183) 
-7.91

>  <QM_Energy>  (183) 
-13.42

>  <Index>  (183) 
1103

$$$$
MIMM-pdb5wmi-A-HIP-285:N1PA-pdb5wmi-A-PRO-241
     RDKit          3D

 32 32  0  0  0  0  0  0  0  0999 V2000
   -0.6677    2.7374    0.0020 C   0  0  0  0  0  0  0  0  0  0  0  0
   -1.4538    2.8051   -0.6239 H   0  0  0  0  0  0  0  0  0  0  0  0
    0.0734    3.3166   -0.3580 H   0  0  0  0  0  0  0  0  0  0  0  0
   -0.9619    3.1071    0.9843 H   0  0  0  0  0  0  0  0  0  0  0  0
   -0.1929    1.3194    0.0066 C   0  0  0  0  0  0  0  0  0  0  0  0
    1.0588    0.8010    0.0000 C   0  0  0  0  0  0  0  0  0  0  0  0
    1.9124    1.3117    0.0005 H   0  0  0  0  0  0  0  0  0  0  0  0
    0.9283   -0.5685   -0.0056 N   0  0  0  0  0  4  0  0  0  0  0  0
    1.6841   -1.2248   -0.0120 H   0  0  0  0  0  0  0  0  0  0  0  0
   -0.3580   -0.8770   -0.0026 C   0  0  0  0  0  0  0  0  0  0  0  0
   -0.7354   -1.7982   -0.0010 H   0  0  0  0  0  0  0  0  0  0  0  0
   -1.0588    0.2463   -0.0000 N   0  0  0  0  0  0  0  0  0  0  0  0
   -2.0547    0.3084   -0.0035 H   0  0  0  0  0  0  0  0  0  0  0  0
   -5.0397   -3.1308    0.7103 C   0  0  0  0  0  0  0  0  0  0  0  0
   -6.0214   -2.9817    0.5465 H   0  0  0  0  0  0  0  0  0  0  0  0
   -4.8478   -4.2034    0.6795 H   0  0  0  0  0  0  0  0  0  0  0  0
   -4.7802   -2.7299    1.6901 H   0  0  0  0  0  0  0  0  0  0  0  0
   -4.2673   -2.3916   -0.3956 C   0  0  0  0  0  0  0  0  0  0  0  0
   -3.0722   -2.6202   -0.5785 O   0  0  0  0  0  0  0  0  0  0  0  0
   -4.9577   -1.5407   -1.1805 N   0  0  0  0  0  0  0  0  0  0  0  0
   -6.4122   -1.3721   -1.2924 C   0  0  0  0  0  0  0  0  0  0  0  0
   -6.7938   -1.0126   -0.4264 H   0  0  0  0  0  0  0  0  0  0  0  0
   -6.9135   -2.2955   -1.5824 H   0  0  0  0  0  0  0  0  0  0  0  0
   -6.5594   -0.3257   -2.3940 C   0  0  0  0  0  0  0  0  0  0  0  0
   -6.6518   -0.7662   -3.2909 H   0  0  0  0  0  0  0  0  0  0  0  0
   -7.3623    0.2517   -2.2302 H   0  0  0  0  0  0  0  0  0  0  0  0
   -5.3028    0.4697   -2.3156 C   0  0  0  0  0  0  0  0  0  0  0  0
   -5.1120    0.9193   -3.1920 H   0  0  0  0  0  0  0  0  0  0  0  0
   -5.3695    1.1669   -1.5974 H   0  0  0  0  0  0  0  0  0  0  0  0
   -4.2349   -0.5371   -1.9872 C   0  0  0  0  0  0  0  0  0  0  0  0
   -3.8596   -0.9570   -2.8124 H   0  0  0  0  0  0  0  0  0  0  0  0
   -3.4949   -0.1277   -1.4544 H   0  0  0  0  0  0  0  0  0  0  0  0
  1  5  1  0
  5  6  2  0
  6  8  1  0
  8 10  2  0
 10 12  1  0
 12  5  1  0
  1  2  1  0
  1  3  1  0
  1  4  1  0
  6  7  1  0
  8  9  1  0
 10 11  1  0
 12 13  1  0
 14 18  1  0
 18 19  2  0
 18 20  1  0
 20 21  1  0
 21 24  1  0
 24 27  1  0
 27 30  1  0
 30 20  1  0
 14 15  1  0
 14 16  1  0
 14 17  1  0
 21 22  1  0
 21 23  1  0
 24 25  1  0
 24 26  1  0
 27 28  1  0
 27 29  1  0
 30 31  1  0
 30 32  1  0
M  CHG  1   8   1
M  END
>  <PDB_ID>  (184) 
pdb5wmi

>  <RESIDUE_NAME>  (184) 
HIP   PRO

>  <FRAG_NAME>  (184) 
MIMM   N1PA

>  <FRAG_ATOM_NUM>  (184) 
fragi: 13  fragj: 19

>  <atom.prop.CHAIN_ID>  (184) 
A A A A A A A A A A A A A Z Z Z Z Z Z Z Z Z Z Z Z Z Z Z Z Z Z Z

>  <atom.prop.IS_HEAVY_ATOM>  (184) 
1 0 0 0 1 1 0 1 0 1 0 1 0 1 0 0 0 1 1 1 1 0 0 1 0 0 1 0 0 1 0 0

>  <DIFUSE_FUNC_ATOM>  (184) 
n/a

>  <FINAL_SINGLE_POINT_ENERGY>  (184) 
0

>  <NONCOV_INTER_ENERGY_QM>  (184) 
0

>  <FF_Energy>  (184) 
-9.22

>  <QM_Energy>  (184) 
-14.53

>  <Index>  (184) 
1135

$$$$
MIMM-pdb5x7g-A-HIP-525:N1PA-pdb5x7g-A-PRO-522
     RDKit          3D

 32 32  0  0  0  0  0  0  0  0999 V2000
   -0.6699    2.7519   -0.0315 C   0  0  0  0  0  0  0  0  0  0  0  0
   -0.0489    3.3034    0.5347 H   0  0  0  0  0  0  0  0  0  0  0  0
   -1.5888    2.7867    0.3743 H   0  0  0  0  0  0  0  0  0  0  0  0
   -0.7151    3.1934   -1.0270 H   0  0  0  0  0  0  0  0  0  0  0  0
   -0.1936    1.3233   -0.0079 C   0  0  0  0  0  0  0  0  0  0  0  0
    1.0569    0.8004   -0.0000 C   0  0  0  0  0  0  0  0  0  0  0  0
    1.9121    1.3114    0.0065 H   0  0  0  0  0  0  0  0  0  0  0  0
    0.9278   -0.5689   -0.0019 N   0  0  0  0  0  4  0  0  0  0  0  0
    1.6836   -1.2250   -0.0073 H   0  0  0  0  0  0  0  0  0  0  0  0
   -0.3580   -0.8783    0.0031 C   0  0  0  0  0  0  0  0  0  0  0  0
   -0.7342   -1.7995    0.0099 H   0  0  0  0  0  0  0  0  0  0  0  0
   -1.0569    0.2447   -0.0000 N   0  0  0  0  0  0  0  0  0  0  0  0
   -2.0549    0.3074    0.0024 H   0  0  0  0  0  0  0  0  0  0  0  0
    2.1201   -4.3217    1.2523 C   0  0  0  0  0  0  0  0  0  0  0  0
    2.6193   -4.9898    1.7978 H   0  0  0  0  0  0  0  0  0  0  0  0
    1.4468   -3.7737    1.9115 H   0  0  0  0  0  0  0  0  0  0  0  0
    1.5735   -4.7978    0.4384 H   0  0  0  0  0  0  0  0  0  0  0  0
    3.1117   -3.3368    0.6589 C   0  0  0  0  0  0  0  0  0  0  0  0
    2.8708   -2.1323    0.6990 O   0  0  0  0  0  0  0  0  0  0  0  0
    4.2220   -3.8244    0.0797 N   0  0  0  0  0  0  0  0  0  0  0  0
    5.1995   -2.8753   -0.4608 C   0  0  0  0  0  0  0  0  0  0  0  0
    5.5561   -2.2704    0.2768 H   0  0  0  0  0  0  0  0  0  0  0  0
    4.8182   -2.2760   -1.2876 H   0  0  0  0  0  0  0  0  0  0  0  0
    6.3500   -3.7704   -0.9478 C   0  0  0  0  0  0  0  0  0  0  0  0
    6.3619   -3.8052   -1.9579 H   0  0  0  0  0  0  0  0  0  0  0  0
    7.2374   -3.3974   -0.6421 H   0  0  0  0  0  0  0  0  0  0  0  0
    6.1060   -5.1174   -0.3686 C   0  0  0  0  0  0  0  0  0  0  0  0
    6.4283   -5.8384   -1.0003 H   0  0  0  0  0  0  0  0  0  0  0  0
    6.6098   -5.2239    0.5017 H   0  0  0  0  0  0  0  0  0  0  0  0
    4.6324   -5.2195   -0.1490 C   0  0  0  0  0  0  0  0  0  0  0  0
    4.1629   -5.5945   -0.9502 H   0  0  0  0  0  0  0  0  0  0  0  0
    4.4137   -5.7830    0.6513 H   0  0  0  0  0  0  0  0  0  0  0  0
  1  5  1  0
  5  6  2  0
  6  8  1  0
  8 10  2  0
 10 12  1  0
 12  5  1  0
  1  2  1  0
  1  3  1  0
  1  4  1  0
  6  7  1  0
  8  9  1  0
 10 11  1  0
 12 13  1  0
 14 18  1  0
 18 19  2  0
 18 20  1  0
 20 21  1  0
 21 24  1  0
 24 27  1  0
 27 30  1  0
 30 20  1  0
 14 15  1  0
 14 16  1  0
 14 17  1  0
 21 22  1  0
 21 23  1  0
 24 25  1  0
 24 26  1  0
 27 28  1  0
 27 29  1  0
 30 31  1  0
 30 32  1  0
M  CHG  1   8   1
M  END
>  <PDB_ID>  (185) 
pdb5x7g

>  <RESIDUE_NAME>  (185) 
HIP   PRO

>  <FRAG_NAME>  (185) 
MIMM   N1PA

>  <FRAG_ATOM_NUM>  (185) 
fragi: 13  fragj: 19

>  <atom.prop.CHAIN_ID>  (185) 
A A A A A A A A A A A A A Z Z Z Z Z Z Z Z Z Z Z Z Z Z Z Z Z Z Z

>  <atom.prop.IS_HEAVY_ATOM>  (185) 
1 0 0 0 1 1 0 1 0 1 0 1 0 1 0 0 0 1 1 1 1 0 0 1 0 0 1 0 0 1 0 0

>  <DIFUSE_FUNC_ATOM>  (185) 
n/a

>  <FINAL_SINGLE_POINT_ENERGY>  (185) 
0

>  <NONCOV_INTER_ENERGY_QM>  (185) 
0

>  <FF_Energy>  (185) 
-15.15

>  <QM_Energy>  (185) 
-23.91

>  <Index>  (185) 
1144

$$$$
MIMM-pdb5xsi-B-HIP-343:N1PA-pdb5xsi-B-PRO-346
     RDKit          3D

 32 32  0  0  0  0  0  0  0  0999 V2000
   -0.6677    2.7177   -0.0440 C   0  0  0  0  0  0  0  0  0  0  0  0
   -1.3920    2.8095   -0.7340 H   0  0  0  0  0  0  0  0  0  0  0  0
    0.0960    3.3191   -0.2963 H   0  0  0  0  0  0  0  0  0  0  0  0
   -1.0618    3.0435    0.9186 H   0  0  0  0  0  0  0  0  0  0  0  0
   -0.1925    1.3179   -0.0289 C   0  0  0  0  0  0  0  0  0  0  0  0
    1.0583    0.8021    0.0000 C   0  0  0  0  0  0  0  0  0  0  0  0
    1.9118    1.3121    0.0014 H   0  0  0  0  0  0  0  0  0  0  0  0
    0.9264   -0.5665    0.0278 N   0  0  0  0  0  4  0  0  0  0  0  0
    1.6843   -1.2226    0.0572 H   0  0  0  0  0  0  0  0  0  0  0  0
   -0.3569   -0.8777    0.0078 C   0  0  0  0  0  0  0  0  0  0  0  0
   -0.7339   -1.7992    0.0010 H   0  0  0  0  0  0  0  0  0  0  0  0
   -1.0583    0.2457   -0.0000 N   0  0  0  0  0  0  0  0  0  0  0  0
   -2.0544    0.3076    0.0118 H   0  0  0  0  0  0  0  0  0  0  0  0
   -5.0733   -1.6693    1.6453 C   0  0  0  0  0  0  0  0  0  0  0  0
   -5.5867   -2.0361    2.4396 H   0  0  0  0  0  0  0  0  0  0  0  0
   -5.2216   -0.5904    1.5984 H   0  0  0  0  0  0  0  0  0  0  0  0
   -5.4974   -2.1845    0.7835 H   0  0  0  0  0  0  0  0  0  0  0  0
   -3.6113   -2.0398    1.8019 C   0  0  0  0  0  0  0  0  0  0  0  0
   -2.9967   -2.5404    0.9141 O   0  0  0  0  0  0  0  0  0  0  0  0
   -3.0807   -1.7884    2.9742 N   0  0  0  0  0  0  0  0  0  0  0  0
   -1.6598   -1.9539    3.1906 C   0  0  0  0  0  0  0  0  0  0  0  0
   -1.1266   -1.3978    2.5333 H   0  0  0  0  0  0  0  0  0  0  0  0
   -1.3688   -3.0029    3.1350 H   0  0  0  0  0  0  0  0  0  0  0  0
   -1.4536   -1.3733    4.5746 C   0  0  0  0  0  0  0  0  0  0  0  0
   -0.7501   -1.8997    5.0789 H   0  0  0  0  0  0  0  0  0  0  0  0
   -1.1291   -0.4156    4.5135 H   0  0  0  0  0  0  0  0  0  0  0  0
   -2.7579   -1.4543    5.2377 C   0  0  0  0  0  0  0  0  0  0  0  0
   -2.8131   -2.2965    5.8165 H   0  0  0  0  0  0  0  0  0  0  0  0
   -2.8828   -0.6662    5.8782 H   0  0  0  0  0  0  0  0  0  0  0  0
   -3.7988   -1.4592    4.1980 C   0  0  0  0  0  0  0  0  0  0  0  0
   -4.5137   -2.1478    4.3814 H   0  0  0  0  0  0  0  0  0  0  0  0
   -4.2500   -0.5594    4.1099 H   0  0  0  0  0  0  0  0  0  0  0  0
  1  5  1  0
  5  6  2  0
  6  8  1  0
  8 10  2  0
 10 12  1  0
 12  5  1  0
  1  2  1  0
  1  3  1  0
  1  4  1  0
  6  7  1  0
  8  9  1  0
 10 11  1  0
 12 13  1  0
 14 18  1  0
 18 19  2  0
 18 20  1  0
 20 21  1  0
 21 24  1  0
 24 27  1  0
 27 30  1  0
 30 20  1  0
 14 15  1  0
 14 16  1  0
 14 17  1  0
 21 22  1  0
 21 23  1  0
 24 25  1  0
 24 26  1  0
 27 28  1  0
 27 29  1  0
 30 31  1  0
 30 32  1  0
M  CHG  1   8   1
M  END
>  <PDB_ID>  (186) 
pdb5xsi

>  <RESIDUE_NAME>  (186) 
HIP   PRO

>  <FRAG_NAME>  (186) 
MIMM   N1PA

>  <FRAG_ATOM_NUM>  (186) 
fragi: 13  fragj: 19

>  <atom.prop.CHAIN_ID>  (186) 
A A A A A A A A A A A A A Z Z Z Z Z Z Z Z Z Z Z Z Z Z Z Z Z Z Z

>  <atom.prop.IS_HEAVY_ATOM>  (186) 
1 0 0 0 1 1 0 1 0 1 0 1 0 1 0 0 0 1 1 1 1 0 0 1 0 0 1 0 0 1 0 0

>  <DIFUSE_FUNC_ATOM>  (186) 
n/a

>  <FINAL_SINGLE_POINT_ENERGY>  (186) 
0

>  <NONCOV_INTER_ENERGY_QM>  (186) 
0

>  <FF_Energy>  (186) 
-8.32

>  <QM_Energy>  (186) 
-13.44

>  <Index>  (186) 
1152

$$$$
MIMM-pdb5z7y-D-HIP-246:N1PA-pdb5z7y-D-PRO-120
     RDKit          3D

 32 32  0  0  0  0  0  0  0  0999 V2000
   -0.6734    2.7381    0.0018 C   0  0  0  0  0  0  0  0  0  0  0  0
   -1.1531    2.9136   -0.8640 H   0  0  0  0  0  0  0  0  0  0  0  0
    0.1283    3.3424    0.0530 H   0  0  0  0  0  0  0  0  0  0  0  0
   -1.3427    2.9667    0.8311 H   0  0  0  0  0  0  0  0  0  0  0  0
   -0.1936    1.3201   -0.0048 C   0  0  0  0  0  0  0  0  0  0  0  0
    1.0557    0.8006   -0.0000 C   0  0  0  0  0  0  0  0  0  0  0  0
    1.9102    1.3125    0.0032 H   0  0  0  0  0  0  0  0  0  0  0  0
    0.9278   -0.5678    0.0008 N   0  0  0  0  0  4  0  0  0  0  0  0
    1.6841   -1.2230   -0.0007 H   0  0  0  0  0  0  0  0  0  0  0  0
   -0.3569   -0.8766    0.0016 C   0  0  0  0  0  0  0  0  0  0  0  0
   -0.7342   -1.7984    0.0039 H   0  0  0  0  0  0  0  0  0  0  0  0
   -1.0557    0.2455   -0.0000 N   0  0  0  0  0  0  0  0  0  0  0  0
   -2.0538    0.3064    0.0011 H   0  0  0  0  0  0  0  0  0  0  0  0
   -3.0423   -2.7062    3.3046 C   0  0  0  0  0  0  0  0  0  0  0  0
   -3.9998   -2.7508    2.9843 H   0  0  0  0  0  0  0  0  0  0  0  0
   -3.0392   -2.8760    4.3813 H   0  0  0  0  0  0  0  0  0  0  0  0
   -2.6429   -1.7180    3.0768 H   0  0  0  0  0  0  0  0  0  0  0  0
   -2.2483   -3.7694    2.5506 C   0  0  0  0  0  0  0  0  0  0  0  0
   -1.2864   -3.4339    1.8459 O   0  0  0  0  0  0  0  0  0  0  0  0
   -2.6070   -5.0484    2.6532 N   0  0  0  0  0  0  0  0  0  0  0  0
   -1.8636   -6.0778    1.9253 C   0  0  0  0  0  0  0  0  0  0  0  0
   -0.8875   -5.8225    1.8458 H   0  0  0  0  0  0  0  0  0  0  0  0
   -2.2941   -6.2727    0.9430 H   0  0  0  0  0  0  0  0  0  0  0  0
   -2.0201   -7.3024    2.8353 C   0  0  0  0  0  0  0  0  0  0  0  0
   -1.9338   -8.1445    2.3129 H   0  0  0  0  0  0  0  0  0  0  0  0
   -1.3546   -7.2828    3.5734 H   0  0  0  0  0  0  0  0  0  0  0  0
   -3.4171   -7.1422    3.3676 C   0  0  0  0  0  0  0  0  0  0  0  0
   -4.0822   -7.5744    2.7463 H   0  0  0  0  0  0  0  0  0  0  0  0
   -3.5013   -7.5772    4.2724 H   0  0  0  0  0  0  0  0  0  0  0  0
   -3.6800   -5.6455    3.4707 C   0  0  0  0  0  0  0  0  0  0  0  0
   -4.5780   -5.4130    3.1002 H   0  0  0  0  0  0  0  0  0  0  0  0
   -3.6175   -5.3351    4.4188 H   0  0  0  0  0  0  0  0  0  0  0  0
  1  5  1  0
  5  6  2  0
  6  8  1  0
  8 10  2  0
 10 12  1  0
 12  5  1  0
  1  2  1  0
  1  3  1  0
  1  4  1  0
  6  7  1  0
  8  9  1  0
 10 11  1  0
 12 13  1  0
 14 18  1  0
 18 19  2  0
 18 20  1  0
 20 21  1  0
 21 24  1  0
 24 27  1  0
 27 30  1  0
 30 20  1  0
 14 15  1  0
 14 16  1  0
 14 17  1  0
 21 22  1  0
 21 23  1  0
 24 25  1  0
 24 26  1  0
 27 28  1  0
 27 29  1  0
 30 31  1  0
 30 32  1  0
M  CHG  1   8   1
M  END
>  <PDB_ID>  (187) 
pdb5z7y

>  <RESIDUE_NAME>  (187) 
HIP   PRO

>  <FRAG_NAME>  (187) 
MIMM   N1PA

>  <FRAG_ATOM_NUM>  (187) 
fragi: 13  fragj: 19

>  <atom.prop.CHAIN_ID>  (187) 
A A A A A A A A A A A A A Z Z Z Z Z Z Z Z Z Z Z Z Z Z Z Z Z Z Z

>  <atom.prop.IS_HEAVY_ATOM>  (187) 
1 0 0 0 1 1 0 1 0 1 0 1 0 1 0 0 0 1 1 1 1 0 0 1 0 0 1 0 0 1 0 0

>  <DIFUSE_FUNC_ATOM>  (187) 
n/a

>  <FINAL_SINGLE_POINT_ENERGY>  (187) 
0

>  <NONCOV_INTER_ENERGY_QM>  (187) 
0

>  <FF_Energy>  (187) 
-9.85

>  <QM_Energy>  (187) 
-15.94

>  <Index>  (187) 
1158

$$$$
