ACEM-pdb1pvw-C-ASN-106:MIMD-pdb1pvw-C-HID-147
     RDKit          3D

 21 20  0  0  0  0  0  0  0  0999 V2000
   -5.8921    2.0691    0.1466 C   0  0  0  0  0  0  0  0  0  0  0  0
   -6.1000    1.5989    0.9968 H   0  0  0  0  0  0  0  0  0  0  0  0
   -6.3351    1.6157   -0.6189 H   0  0  0  0  0  0  0  0  0  0  0  0
   -6.2668    3.0905    0.2114 H   0  0  0  0  0  0  0  0  0  0  0  0
   -4.3575    1.9913   -0.0775 C   0  0  0  0  0  0  0  0  0  0  0  0
   -3.7757    0.8102    0.1408 N   0  0  0  0  0  0  0  0  0  0  0  0
   -4.3439    0.0349    0.4295 H   0  0  0  0  0  0  0  0  0  0  0  0
   -2.7967    0.7022    0.0187 H   0  0  0  0  0  0  0  0  0  0  0  0
   -3.7133    2.9982   -0.4252 O   0  0  0  0  0  0  0  0  0  0  0  0
   -0.1797    2.6569   -0.0046 C   0  0  0  0  0  0  0  0  0  0  0  0
   -0.9192    2.8988   -0.6400 H   0  0  0  0  0  0  0  0  0  0  0  0
    0.6753    3.0702   -0.3306 H   0  0  0  0  0  0  0  0  0  0  0  0
   -0.4134    3.0561    0.9824 H   0  0  0  0  0  0  0  0  0  0  0  0
   -0.0185    1.1745   -0.0101 C   0  0  0  0  0  0  0  0  0  0  0  0
    1.0977    0.3963    0.0000 C   0  0  0  0  0  0  0  0  0  0  0  0
    2.0392    0.7103    0.0039 H   0  0  0  0  0  0  0  0  0  0  0  0
    0.6747   -0.9217    0.0050 N   0  0  0  0  0  0  0  0  0  0  0  0
   -0.6561   -0.9500    0.0052 C   0  0  0  0  0  0  0  0  0  0  0  0
   -1.2175   -1.7674    0.0095 H   0  0  0  0  0  0  0  0  0  0  0  0
   -1.0977    0.3008   -0.0000 N   0  0  0  0  0  0  0  0  0  0  0  0
   -2.0569    0.5766    0.0020 H   0  0  0  0  0  0  0  0  0  0  0  0
  1  5  1  0
  5  6  1  0
  5  9  2  0
  1  2  1  0
  1  3  1  0
  1  4  1  0
  6  7  1  0
  6  8  1  0
 10 14  1  0
 14 15  2  0
 15 17  1  0
 17 18  2  0
 18 20  1  0
 20 14  1  0
 10 11  1  0
 10 12  1  0
 10 13  1  0
 15 16  1  0
 18 19  1  0
 20 21  1  0
M  END
>  <PDB_ID>  (99) 
pdb1pvw

>  <RESIDUE_NAME>  (99) 
ASN   HID

>  <FRAG_NAME>  (99) 
ACEM   MIMD

>  <FRAG_ATOM_NUM>  (99) 
fragi: 9  fragj: 12

>  <atom.prop.CHAIN_ID>  (99) 
A A A A A A A A A Z Z Z Z Z Z Z Z Z Z Z Z

>  <atom.prop.IS_HEAVY_ATOM>  (99) 
1 0 0 0 1 1 0 0 1 1 0 0 0 1 1 0 1 1 0 1 0

>  <DIFUSE_FUNC_ATOM>  (99) 
n/a

>  <FINAL_SINGLE_POINT_ENERGY>  (99) 
0

>  <NONCOV_INTER_ENERGY_QM>  (99) 
0

>  <FF_Energy>  (99) 
18.88

>  <QM_Energy>  (99) 
59.97

>  <source>  (99) 
ACEM_MIMD

>  <Index>  (99) 
10543
