ACEM-pdb5cos-C-GLN-55:MIMD-pdb5cos-C-HID-21
     RDKit          3D

 21 20  0  0  0  0  0  0  0  0999 V2000
   -5.5088   -1.2813   -0.2672 C   0  0  0  0  0  0  0  0  0  0  0  0
   -5.9621   -0.4810   -0.6680 H   0  0  0  0  0  0  0  0  0  0  0  0
   -6.0547   -1.6098    0.5086 H   0  0  0  0  0  0  0  0  0  0  0  0
   -5.4856   -2.0684   -1.0209 H   0  0  0  0  0  0  0  0  0  0  0  0
   -4.1436   -0.8739    0.2292 C   0  0  0  0  0  0  0  0  0  0  0  0
   -3.6508    0.2645   -0.2580 N   0  0  0  0  0  0  0  0  0  0  0  0
   -2.7431    0.6110    0.0407 H   0  0  0  0  0  0  0  0  0  0  0  0
   -4.2024    0.7852   -0.9372 H   0  0  0  0  0  0  0  0  0  0  0  0
   -3.5258   -1.5811    1.0456 O   0  0  0  0  0  0  0  0  0  0  0  0
   -0.1812    2.6503   -0.0380 C   0  0  0  0  0  0  0  0  0  0  0  0
   -1.0748    2.8743   -0.4434 H   0  0  0  0  0  0  0  0  0  0  0  0
    0.5400    3.0515   -0.6130 H   0  0  0  0  0  0  0  0  0  0  0  0
   -0.1233    3.0870    0.9591 H   0  0  0  0  0  0  0  0  0  0  0  0
   -0.0193    1.1671   -0.0471 C   0  0  0  0  0  0  0  0  0  0  0  0
    1.0941    0.3876    0.0000 C   0  0  0  0  0  0  0  0  0  0  0  0
    2.0366    0.7052    0.0108 H   0  0  0  0  0  0  0  0  0  0  0  0
    0.6712   -0.9187    0.0306 N   0  0  0  0  0  0  0  0  0  0  0  0
   -0.6519   -0.9423    0.0164 C   0  0  0  0  0  0  0  0  0  0  0  0
   -1.2188   -1.7601    0.0197 H   0  0  0  0  0  0  0  0  0  0  0  0
   -1.0941    0.3064   -0.0000 N   0  0  0  0  0  0  0  0  0  0  0  0
   -2.0539    0.5812    0.0176 H   0  0  0  0  0  0  0  0  0  0  0  0
  1  5  1  0
  5  6  1  0
  5  9  2  0
  1  2  1  0
  1  3  1  0
  1  4  1  0
  6  7  1  0
  6  8  1  0
 10 14  1  0
 14 15  2  0
 15 17  1  0
 17 18  2  0
 18 20  1  0
 20 14  1  0
 10 11  1  0
 10 12  1  0
 10 13  1  0
 15 16  1  0
 18 19  1  0
 20 21  1  0
M  END
>  <PDB_ID>  (282) 
pdb5cos

>  <RESIDUE_NAME>  (282) 
GLN   HID

>  <FRAG_NAME>  (282) 
ACEM   MIMD

>  <FRAG_ATOM_NUM>  (282) 
fragi: 9  fragj: 12

>  <atom.prop.CHAIN_ID>  (282) 
A A A A A A A A A Z Z Z Z Z Z Z Z Z Z Z Z

>  <atom.prop.IS_HEAVY_ATOM>  (282) 
1 0 0 0 1 1 0 0 1 1 0 0 0 1 1 0 1 1 0 1 0

>  <DIFUSE_FUNC_ATOM>  (282) 
n/a

>  <FINAL_SINGLE_POINT_ENERGY>  (282) 
0

>  <NONCOV_INTER_ENERGY_QM>  (282) 
0

>  <FF_Energy>  (282) 
31.43

>  <QM_Energy>  (282) 
80.59

>  <source>  (282) 
ACEM_MIMD

>  <Index>  (282) 
35212