ACEM-pdb11as-C-GLN-297:MIMD-pdb11as-C-HID-95
     RDKit          3D

 21 20  0  0  0  0  0  0  0  0999 V2000
   -5.5643    1.4392   -2.1122 C   0  0  0  0  0  0  0  0  0  0  0  0
   -5.2604    0.7724   -2.8004 H   0  0  0  0  0  0  0  0  0  0  0  0
   -5.7818    2.3042   -2.5772 H   0  0  0  0  0  0  0  0  0  0  0  0
   -6.4682    1.0616   -1.6340 H   0  0  0  0  0  0  0  0  0  0  0  0
   -4.4461    1.6782   -1.1469 C   0  0  0  0  0  0  0  0  0  0  0  0
   -3.3674    0.9419   -1.3054 N   0  0  0  0  0  0  0  0  0  0  0  0
   -2.5495    1.0530   -0.6933 H   0  0  0  0  0  0  0  0  0  0  0  0
   -3.3430    0.2447   -2.0516 H   0  0  0  0  0  0  0  0  0  0  0  0
   -4.5651    2.4861   -0.2377 O   0  0  0  0  0  0  0  0  0  0  0  0
   -0.1863    2.6463   -0.0057 C   0  0  0  0  0  0  0  0  0  0  0  0
    0.5414    3.0455    0.5652 H   0  0  0  0  0  0  0  0  0  0  0  0
   -1.0748    2.8640    0.4161 H   0  0  0  0  0  0  0  0  0  0  0  0
   -0.1448    3.0903   -1.0004 H   0  0  0  0  0  0  0  0  0  0  0  0
   -0.0198    1.1634   -0.0064 C   0  0  0  0  0  0  0  0  0  0  0  0
    1.0884    0.3908   -0.0000 C   0  0  0  0  0  0  0  0  0  0  0  0
    2.0329    0.7085    0.0032 H   0  0  0  0  0  0  0  0  0  0  0  0
    0.6687   -0.9133    0.0042 N   0  0  0  0  0  0  0  0  0  0  0  0
   -0.6489   -0.9415    0.0022 C   0  0  0  0  0  0  0  0  0  0  0  0
   -1.2144   -1.7628    0.0030 H   0  0  0  0  0  0  0  0  0  0  0  0
   -1.0884    0.3006    0.0000 N   0  0  0  0  0  0  0  0  0  0  0  0
   -2.0525    0.5753    0.0019 H   0  0  0  0  0  0  0  0  0  0  0  0
  1  5  1  0
  5  6  1  0
  5  9  2  0
  1  2  1  0
  1  3  1  0
  1  4  1  0
  6  7  1  0
  6  8  1  0
 10 14  1  0
 14 15  2  0
 15 17  1  0
 17 18  2  0
 18 20  1  0
 20 14  1  0
 10 11  1  0
 10 12  1  0
 10 13  1  0
 15 16  1  0
 18 19  1  0
 20 21  1  0
M  END
>  <PDB_ID>  (1) 
pdb11as

>  <RESIDUE_NAME>  (1) 
GLN   HID

>  <FRAG_NAME>  (1) 
ACEM   MIMD

>  <FRAG_ATOM_NUM>  (1) 
fragi: 9  fragj: 12

>  <atom.prop.CHAIN_ID>  (1) 
A A A A A A A A A Z Z Z Z Z Z Z Z Z Z Z Z

>  <atom.prop.IS_HEAVY_ATOM>  (1) 
1 0 0 0 1 1 0 0 1 1 0 0 0 1 1 0 1 1 0 1 0

>  <DIFUSE_FUNC_ATOM>  (1) 
n/a

>  <FINAL_SINGLE_POINT_ENERGY>  (1) 
0

>  <NONCOV_INTER_ENERGY_QM>  (1) 
0

>  <FF_Energy>  (1) 
12.24

>  <QM_Energy>  (1) 
29.87

>  <source>  (1) 
ACEM_MIMD

>  <Index>  (1) 
48

$$$$
ACEM-pdb1a0s-R-GLN-257:MIMD-pdb1a0s-R-HID-295
     RDKit          3D

 21 20  0  0  0  0  0  0  0  0999 V2000
   -3.7314   -3.9507   -1.3784 C   0  0  0  0  0  0  0  0  0  0  0  0
   -4.3390   -4.6093   -0.9313 H   0  0  0  0  0  0  0  0  0  0  0  0
   -3.9148   -3.9503   -2.3637 H   0  0  0  0  0  0  0  0  0  0  0  0
   -3.9389   -2.9568   -0.9819 H   0  0  0  0  0  0  0  0  0  0  0  0
   -2.2954   -4.3965   -1.1570 C   0  0  0  0  0  0  0  0  0  0  0  0
   -1.5267   -3.5730   -0.4506 N   0  0  0  0  0  0  0  0  0  0  0  0
   -0.5580   -3.8103   -0.2499 H   0  0  0  0  0  0  0  0  0  0  0  0
   -1.9235   -2.6979   -0.1138 H   0  0  0  0  0  0  0  0  0  0  0  0
   -1.8789   -5.4649   -1.6253 O   0  0  0  0  0  0  0  0  0  0  0  0
   -0.1773    2.6595   -0.0815 C   0  0  0  0  0  0  0  0  0  0  0  0
   -0.9155    2.8643   -0.7357 H   0  0  0  0  0  0  0  0  0  0  0  0
    0.6801    3.0495   -0.4397 H   0  0  0  0  0  0  0  0  0  0  0  0
   -0.4088    3.1303    0.8740 H   0  0  0  0  0  0  0  0  0  0  0  0
   -0.0174    1.1695   -0.0078 C   0  0  0  0  0  0  0  0  0  0  0  0
    1.0901    0.3903    0.0000 C   0  0  0  0  0  0  0  0  0  0  0  0
    2.0358    0.7045    0.0030 H   0  0  0  0  0  0  0  0  0  0  0  0
    0.6690   -0.9179    0.0040 N   0  0  0  0  0  0  0  0  0  0  0  0
   -0.6515   -0.9434    0.0038 C   0  0  0  0  0  0  0  0  0  0  0  0
   -1.2181   -1.7623    0.0073 H   0  0  0  0  0  0  0  0  0  0  0  0
   -1.0901    0.3015    0.0000 N   0  0  0  0  0  0  0  0  0  0  0  0
   -2.0525    0.5784    0.0019 H   0  0  0  0  0  0  0  0  0  0  0  0
  1  5  1  0
  5  6  1  0
  5  9  2  0
  1  2  1  0
  1  3  1  0
  1  4  1  0
  6  7  1  0
  6  8  1  0
 10 14  1  0
 14 15  2  0
 15 17  1  0
 17 18  2  0
 18 20  1  0
 20 14  1  0
 10 11  1  0
 10 12  1  0
 10 13  1  0
 15 16  1  0
 18 19  1  0
 20 21  1  0
M  END
>  <PDB_ID>  (2) 
pdb1a0s

>  <RESIDUE_NAME>  (2) 
GLN   HID

>  <FRAG_NAME>  (2) 
ACEM   MIMD

>  <FRAG_ATOM_NUM>  (2) 
fragi: 9  fragj: 12

>  <atom.prop.CHAIN_ID>  (2) 
A A A A A A A A A Z Z Z Z Z Z Z Z Z Z Z Z

>  <atom.prop.IS_HEAVY_ATOM>  (2) 
1 0 0 0 1 1 0 0 1 1 0 0 0 1 1 0 1 1 0 1 0

>  <DIFUSE_FUNC_ATOM>  (2) 
n/a

>  <FINAL_SINGLE_POINT_ENERGY>  (2) 
0

>  <NONCOV_INTER_ENERGY_QM>  (2) 
0

>  <FF_Energy>  (2) 
10.1

>  <QM_Energy>  (2) 
18.35

>  <source>  (2) 
ACEM_MIMD

>  <Index>  (2) 
99

$$$$
ACEM-pdb2a9u-B-GLN-83:MIMD-pdb2a9u-B-HID-87
     RDKit          3D

 21 20  0  0  0  0  0  0  0  0999 V2000
   -2.3936   -1.4610    2.5141 C   0  0  0  0  0  0  0  0  0  0  0  0
   -2.5385   -0.7342    1.8422 H   0  0  0  0  0  0  0  0  0  0  0  0
   -1.4126   -1.6296    2.6156 H   0  0  0  0  0  0  0  0  0  0  0  0
   -2.7953   -1.1373    3.4744 H   0  0  0  0  0  0  0  0  0  0  0  0
   -3.0486   -2.7398    1.9834 C   0  0  0  0  0  0  0  0  0  0  0  0
   -2.4973   -3.2769    0.8789 N   0  0  0  0  0  0  0  0  0  0  0  0
   -2.8710   -4.1252    0.4859 H   0  0  0  0  0  0  0  0  0  0  0  0
   -1.7032   -2.8042    0.4591 H   0  0  0  0  0  0  0  0  0  0  0  0
   -4.0364   -3.2402    2.5568 O   0  0  0  0  0  0  0  0  0  0  0  0
   -0.1797    2.6542   -0.0050 C   0  0  0  0  0  0  0  0  0  0  0  0
   -1.0216    2.8793    0.4958 H   0  0  0  0  0  0  0  0  0  0  0  0
   -0.2777    2.9685   -0.9544 H   0  0  0  0  0  0  0  0  0  0  0  0
    0.6559    3.1814    0.4554 H   0  0  0  0  0  0  0  0  0  0  0  0
   -0.0158    1.1688   -0.0129 C   0  0  0  0  0  0  0  0  0  0  0  0
    1.0904    0.3920    0.0000 C   0  0  0  0  0  0  0  0  0  0  0  0
    2.0361    0.7038    0.0067 H   0  0  0  0  0  0  0  0  0  0  0  0
    0.6680   -0.9192    0.0041 N   0  0  0  0  0  0  0  0  0  0  0  0
   -0.6522   -0.9448    0.0088 C   0  0  0  0  0  0  0  0  0  0  0  0
   -1.2197   -1.7621    0.0187 H   0  0  0  0  0  0  0  0  0  0  0  0
   -1.0904    0.3031   -0.0000 N   0  0  0  0  0  0  0  0  0  0  0  0
   -2.0515    0.5795    0.0014 H   0  0  0  0  0  0  0  0  0  0  0  0
  1  5  1  0
  5  6  1  0
  5  9  2  0
  1  2  1  0
  1  3  1  0
  1  4  1  0
  6  7  1  0
  6  8  1  0
 10 14  1  0
 14 15  2  0
 15 17  1  0
 17 18  2  0
 18 20  1  0
 20 14  1  0
 10 11  1  0
 10 12  1  0
 10 13  1  0
 15 16  1  0
 18 19  1  0
 20 21  1  0
M  END
>  <PDB_ID>  (3) 
pdb2a9u

>  <RESIDUE_NAME>  (3) 
GLN   HID

>  <FRAG_NAME>  (3) 
ACEM   MIMD

>  <FRAG_ATOM_NUM>  (3) 
fragi: 9  fragj: 12

>  <atom.prop.CHAIN_ID>  (3) 
A A A A A A A A A Z Z Z Z Z Z Z Z Z Z Z Z

>  <atom.prop.IS_HEAVY_ATOM>  (3) 
1 0 0 0 1 1 0 0 1 1 0 0 0 1 1 0 1 1 0 1 0

>  <DIFUSE_FUNC_ATOM>  (3) 
n/a

>  <FINAL_SINGLE_POINT_ENERGY>  (3) 
0

>  <NONCOV_INTER_ENERGY_QM>  (3) 
0

>  <FF_Energy>  (3) 
3.03

>  <QM_Energy>  (3) 
11.61

>  <source>  (3) 
ACEM_MIMD

>  <Index>  (3) 
277

$$$$
ACEM-pdb1aj0-A-ASN-162:MIMD-pdb1aj0-A-HID-209
     RDKit          3D

 21 20  0  0  0  0  0  0  0  0999 V2000
   -1.9684   -5.5140    1.5304 C   0  0  0  0  0  0  0  0  0  0  0  0
   -2.8650   -5.1326    1.7086 H   0  0  0  0  0  0  0  0  0  0  0  0
   -1.6742   -6.0961    2.2764 H   0  0  0  0  0  0  0  0  0  0  0  0
   -2.0202   -6.1131    0.6213 H   0  0  0  0  0  0  0  0  0  0  0  0
   -0.9765   -4.3740    1.3840 C   0  0  0  0  0  0  0  0  0  0  0  0
   -1.4141   -3.3181    0.7055 N   0  0  0  0  0  0  0  0  0  0  0  0
   -2.3389   -3.2998    0.3337 H   0  0  0  0  0  0  0  0  0  0  0  0
   -0.8084   -2.5293    0.5661 H   0  0  0  0  0  0  0  0  0  0  0  0
    0.1354   -4.4704    1.9336 O   0  0  0  0  0  0  0  0  0  0  0  0
   -0.0811    2.6622   -0.0534 C   0  0  0  0  0  0  0  0  0  0  0  0
    0.7667    3.0363    0.3295 H   0  0  0  0  0  0  0  0  0  0  0  0
   -0.8523    2.9476    0.5201 H   0  0  0  0  0  0  0  0  0  0  0  0
   -0.2221    3.0734   -1.0530 H   0  0  0  0  0  0  0  0  0  0  0  0
    0.0036    1.1661   -0.0308 C   0  0  0  0  0  0  0  0  0  0  0  0
    1.0981    0.3716    0.0000 C   0  0  0  0  0  0  0  0  0  0  0  0
    2.0486    0.6685    0.0096 H   0  0  0  0  0  0  0  0  0  0  0  0
    0.6545   -0.9331    0.0161 N   0  0  0  0  0  0  0  0  0  0  0  0
   -0.6581   -0.9286    0.0148 C   0  0  0  0  0  0  0  0  0  0  0  0
   -1.2455   -1.7424    0.0256 H   0  0  0  0  0  0  0  0  0  0  0  0
   -1.0981    0.3241   -0.0000 N   0  0  0  0  0  0  0  0  0  0  0  0
   -2.0444    0.6118    0.0079 H   0  0  0  0  0  0  0  0  0  0  0  0
  1  5  1  0
  5  6  1  0
  5  9  2  0
  1  2  1  0
  1  3  1  0
  1  4  1  0
  6  7  1  0
  6  8  1  0
 10 14  1  0
 14 15  2  0
 15 17  1  0
 17 18  2  0
 18 20  1  0
 20 14  1  0
 10 11  1  0
 10 12  1  0
 10 13  1  0
 15 16  1  0
 18 19  1  0
 20 21  1  0
M  END
>  <PDB_ID>  (4) 
pdb1aj0

>  <RESIDUE_NAME>  (4) 
ASN   HID

>  <FRAG_NAME>  (4) 
ACEM   MIMD

>  <FRAG_ATOM_NUM>  (4) 
fragi: 9  fragj: 12

>  <atom.prop.CHAIN_ID>  (4) 
A A A A A A A A A Z Z Z Z Z Z Z Z Z Z Z Z

>  <atom.prop.IS_HEAVY_ATOM>  (4) 
1 0 0 0 1 1 0 0 1 1 0 0 0 1 1 0 1 1 0 1 0

>  <DIFUSE_FUNC_ATOM>  (4) 
n/a

>  <FINAL_SINGLE_POINT_ENERGY>  (4) 
0

>  <NONCOV_INTER_ENERGY_QM>  (4) 
0

>  <FF_Energy>  (4) 
30.81

>  <QM_Energy>  (4) 
36.85

>  <source>  (4) 
ACEM_MIMD

>  <Index>  (4) 
567

$$$$
ACEM-pdb2atz-A-ASN-73:MIMD-pdb2atz-A-HID-118
     RDKit          3D

 21 20  0  0  0  0  0  0  0  0999 V2000
   -5.6390    0.6951   -2.0612 C   0  0  0  0  0  0  0  0  0  0  0  0
   -6.4521    0.1271   -2.0817 H   0  0  0  0  0  0  0  0  0  0  0  0
   -4.9847    0.3963   -2.7456 H   0  0  0  0  0  0  0  0  0  0  0  0
   -5.9265    1.7233   -2.2812 H   0  0  0  0  0  0  0  0  0  0  0  0
   -4.9780    0.5313   -0.6636 C   0  0  0  0  0  0  0  0  0  0  0  0
   -3.8025    1.0619   -0.5024 N   0  0  0  0  0  0  0  0  0  0  0  0
   -3.3590    1.5593   -1.2621 H   0  0  0  0  0  0  0  0  0  0  0  0
   -3.3166    0.9889    0.3737 H   0  0  0  0  0  0  0  0  0  0  0  0
   -5.5661   -0.0275    0.2583 O   0  0  0  0  0  0  0  0  0  0  0  0
   -0.1772    2.6629   -0.0846 C   0  0  0  0  0  0  0  0  0  0  0  0
    0.7043    3.0704   -0.3300 H   0  0  0  0  0  0  0  0  0  0  0  0
   -0.4423    2.9798    0.8278 H   0  0  0  0  0  0  0  0  0  0  0  0
   -0.9287    2.9922   -0.8020 H   0  0  0  0  0  0  0  0  0  0  0  0
   -0.0150    1.1701   -0.0400 C   0  0  0  0  0  0  0  0  0  0  0  0
    1.0923    0.3893   -0.0000 C   0  0  0  0  0  0  0  0  0  0  0  0
    2.0380    0.7006    0.0043 H   0  0  0  0  0  0  0  0  0  0  0  0
    0.6678   -0.9220    0.0345 N   0  0  0  0  0  0  0  0  0  0  0  0
   -0.6528   -0.9457    0.0055 C   0  0  0  0  0  0  0  0  0  0  0  0
   -1.2224   -1.7600   -0.0092 H   0  0  0  0  0  0  0  0  0  0  0  0
   -1.0923    0.3084    0.0000 N   0  0  0  0  0  0  0  0  0  0  0  0
   -2.0515    0.5831    0.0205 H   0  0  0  0  0  0  0  0  0  0  0  0
  1  5  1  0
  5  6  1  0
  5  9  2  0
  1  2  1  0
  1  3  1  0
  1  4  1  0
  6  7  1  0
  6  8  1  0
 10 14  1  0
 14 15  2  0
 15 17  1  0
 17 18  2  0
 18 20  1  0
 20 14  1  0
 10 11  1  0
 10 12  1  0
 10 13  1  0
 15 16  1  0
 18 19  1  0
 20 21  1  0
M  END
>  <PDB_ID>  (5) 
pdb2atz

>  <RESIDUE_NAME>  (5) 
ASN   HID

>  <FRAG_NAME>  (5) 
ACEM   MIMD

>  <FRAG_ATOM_NUM>  (5) 
fragi: 9  fragj: 12

>  <atom.prop.CHAIN_ID>  (5) 
A A A A A A A A A Z Z Z Z Z Z Z Z Z Z Z Z

>  <atom.prop.IS_HEAVY_ATOM>  (5) 
1 0 0 0 1 1 0 0 1 1 0 0 0 1 1 0 1 1 0 1 0

>  <DIFUSE_FUNC_ATOM>  (5) 
n/a

>  <FINAL_SINGLE_POINT_ENERGY>  (5) 
0

>  <NONCOV_INTER_ENERGY_QM>  (5) 
0

>  <FF_Energy>  (5) 
5.05

>  <QM_Energy>  (5) 
10.11

>  <source>  (5) 
ACEM_MIMD

>  <Index>  (5) 
582

$$$$
ACEM-pdb2bbh-A-ASN-217:MIMD-pdb2bbh-A-HID-120
     RDKit          3D

 21 20  0  0  0  0  0  0  0  0999 V2000
   -5.0793   -0.1582    0.9167 C   0  0  0  0  0  0  0  0  0  0  0  0
   -5.3139   -0.2210    1.8825 H   0  0  0  0  0  0  0  0  0  0  0  0
   -4.3338   -0.7841    0.7029 H   0  0  0  0  0  0  0  0  0  0  0  0
   -5.9512   -0.4535    0.3332 H   0  0  0  0  0  0  0  0  0  0  0  0
   -4.6105    1.2705    0.6249 C   0  0  0  0  0  0  0  0  0  0  0  0
   -3.2927    1.4845    0.6001 N   0  0  0  0  0  0  0  0  0  0  0  0
   -2.6733    0.7125    0.7642 H   0  0  0  0  0  0  0  0  0  0  0  0
   -2.9343    2.3923    0.4205 H   0  0  0  0  0  0  0  0  0  0  0  0
   -5.4315    2.1710    0.4255 O   0  0  0  0  0  0  0  0  0  0  0  0
   -0.1917    2.6683   -0.0006 C   0  0  0  0  0  0  0  0  0  0  0  0
    0.1122    3.0217    0.8942 H   0  0  0  0  0  0  0  0  0  0  0  0
   -1.1743    2.8745   -0.1018 H   0  0  0  0  0  0  0  0  0  0  0  0
    0.3504    3.2027   -0.7807 H   0  0  0  0  0  0  0  0  0  0  0  0
   -0.0171    1.1706   -0.0049 C   0  0  0  0  0  0  0  0  0  0  0  0
    1.0915    0.3919    0.0000 C   0  0  0  0  0  0  0  0  0  0  0  0
    2.0360    0.7056    0.0036 H   0  0  0  0  0  0  0  0  0  0  0  0
    0.6690   -0.9185    0.0009 N   0  0  0  0  0  0  0  0  0  0  0  0
   -0.6519   -0.9447    0.0040 C   0  0  0  0  0  0  0  0  0  0  0  0
   -1.2181   -1.7635    0.0098 H   0  0  0  0  0  0  0  0  0  0  0  0
   -1.0915    0.3007    0.0000 N   0  0  0  0  0  0  0  0  0  0  0  0
   -2.0528    0.5773   -0.0000 H   0  0  0  0  0  0  0  0  0  0  0  0
  1  5  1  0
  5  6  1  0
  5  9  2  0
  1  2  1  0
  1  3  1  0
  1  4  1  0
  6  7  1  0
  6  8  1  0
 10 14  1  0
 14 15  2  0
 15 17  1  0
 17 18  2  0
 18 20  1  0
 20 14  1  0
 10 11  1  0
 10 12  1  0
 10 13  1  0
 15 16  1  0
 18 19  1  0
 20 21  1  0
M  END
>  <PDB_ID>  (6) 
pdb2bbh

>  <RESIDUE_NAME>  (6) 
ASN   HID

>  <FRAG_NAME>  (6) 
ACEM   MIMD

>  <FRAG_ATOM_NUM>  (6) 
fragi: 9  fragj: 12

>  <atom.prop.CHAIN_ID>  (6) 
A A A A A A A A A Z Z Z Z Z Z Z Z Z Z Z Z

>  <atom.prop.IS_HEAVY_ATOM>  (6) 
1 0 0 0 1 1 0 0 1 1 0 0 0 1 1 0 1 1 0 1 0

>  <DIFUSE_FUNC_ATOM>  (6) 
n/a

>  <FINAL_SINGLE_POINT_ENERGY>  (6) 
0

>  <NONCOV_INTER_ENERGY_QM>  (6) 
0

>  <FF_Energy>  (6) 
20.35

>  <QM_Energy>  (6) 
35.23

>  <source>  (6) 
ACEM_MIMD

>  <Index>  (6) 
873

$$$$
ACEM-pdb2c1g-A-ASN-127:MIMD-pdb2c1g-A-HID-154
     RDKit          3D

 21 20  0  0  0  0  0  0  0  0999 V2000
   -4.8577    0.6672   -2.7950 C   0  0  0  0  0  0  0  0  0  0  0  0
   -5.8324    0.4517   -2.8251 H   0  0  0  0  0  0  0  0  0  0  0  0
   -4.3839    0.1910   -3.5342 H   0  0  0  0  0  0  0  0  0  0  0  0
   -4.7396    1.7400   -2.9476 H   0  0  0  0  0  0  0  0  0  0  0  0
   -4.2971    0.1867   -1.4729 C   0  0  0  0  0  0  0  0  0  0  0  0
   -3.5892    1.0605   -0.7829 N   0  0  0  0  0  0  0  0  0  0  0  0
   -3.4501    1.9889   -1.1348 H   0  0  0  0  0  0  0  0  0  0  0  0
   -3.1860    0.8026    0.0984 H   0  0  0  0  0  0  0  0  0  0  0  0
   -4.4887   -0.9805   -1.0919 O   0  0  0  0  0  0  0  0  0  0  0  0
   -0.1727    2.6493   -0.0015 C   0  0  0  0  0  0  0  0  0  0  0  0
    0.7147    3.0646    0.2212 H   0  0  0  0  0  0  0  0  0  0  0  0
   -0.8335    2.9015    0.7120 H   0  0  0  0  0  0  0  0  0  0  0  0
   -0.5182    3.0414   -0.9580 H   0  0  0  0  0  0  0  0  0  0  0  0
   -0.0149    1.1652    0.0053 C   0  0  0  0  0  0  0  0  0  0  0  0
    1.0916    0.3886   -0.0000 C   0  0  0  0  0  0  0  0  0  0  0  0
    2.0376    0.7029   -0.0009 H   0  0  0  0  0  0  0  0  0  0  0  0
    0.6685   -0.9167   -0.0023 N   0  0  0  0  0  0  0  0  0  0  0  0
   -0.6536   -0.9410   -0.0030 C   0  0  0  0  0  0  0  0  0  0  0  0
   -1.2192   -1.7604   -0.0044 H   0  0  0  0  0  0  0  0  0  0  0  0
   -1.0916    0.3038    0.0000 N   0  0  0  0  0  0  0  0  0  0  0  0
   -2.0514    0.5824   -0.0018 H   0  0  0  0  0  0  0  0  0  0  0  0
  1  5  1  0
  5  6  1  0
  5  9  2  0
  1  2  1  0
  1  3  1  0
  1  4  1  0
  6  7  1  0
  6  8  1  0
 10 14  1  0
 14 15  2  0
 15 17  1  0
 17 18  2  0
 18 20  1  0
 20 14  1  0
 10 11  1  0
 10 12  1  0
 10 13  1  0
 15 16  1  0
 18 19  1  0
 20 21  1  0
M  END
>  <PDB_ID>  (7) 
pdb2c1g

>  <RESIDUE_NAME>  (7) 
ASN   HID

>  <FRAG_NAME>  (7) 
ACEM   MIMD

>  <FRAG_ATOM_NUM>  (7) 
fragi: 9  fragj: 12

>  <atom.prop.CHAIN_ID>  (7) 
A A A A A A A A A Z Z Z Z Z Z Z Z Z Z Z Z

>  <atom.prop.IS_HEAVY_ATOM>  (7) 
1 0 0 0 1 1 0 0 1 1 0 0 0 1 1 0 1 1 0 1 0

>  <DIFUSE_FUNC_ATOM>  (7) 
n/a

>  <FINAL_SINGLE_POINT_ENERGY>  (7) 
0

>  <NONCOV_INTER_ENERGY_QM>  (7) 
0

>  <FF_Energy>  (7) 
9.08

>  <QM_Energy>  (7) 
19.14

>  <source>  (7) 
ACEM_MIMD

>  <Index>  (7) 
1225

$$$$
ACEM-pdb1bli-A-GLN-9:MIMD-pdb1bli-A-HID-327
     RDKit          3D

 21 20  0  0  0  0  0  0  0  0999 V2000
   -4.9381    1.4353    3.3749 C   0  0  0  0  0  0  0  0  0  0  0  0
   -4.7777    2.3694    3.7075 H   0  0  0  0  0  0  0  0  0  0  0  0
   -4.5165    0.7870    4.0156 H   0  0  0  0  0  0  0  0  0  0  0  0
   -6.0127    1.2537    3.3535 H   0  0  0  0  0  0  0  0  0  0  0  0
   -4.2332    1.2876    2.0132 C   0  0  0  0  0  0  0  0  0  0  0  0
   -2.9090    1.2708    2.0226 N   0  0  0  0  0  0  0  0  0  0  0  0
   -2.3849    1.1624    1.1667 H   0  0  0  0  0  0  0  0  0  0  0  0
   -2.4243    1.3703    2.9157 H   0  0  0  0  0  0  0  0  0  0  0  0
   -4.8980    1.1938    0.9651 O   0  0  0  0  0  0  0  0  0  0  0  0
   -0.1880    2.6376   -0.1625 C   0  0  0  0  0  0  0  0  0  0  0  0
    0.7175    3.0677   -0.1228 H   0  0  0  0  0  0  0  0  0  0  0  0
   -0.7427    2.9750    0.6024 H   0  0  0  0  0  0  0  0  0  0  0  0
   -0.6718    2.9127   -1.0997 H   0  0  0  0  0  0  0  0  0  0  0  0
   -0.0193    1.1652   -0.0120 C   0  0  0  0  0  0  0  0  0  0  0  0
    1.0928    0.3926    0.0000 C   0  0  0  0  0  0  0  0  0  0  0  0
    2.0354    0.7096    0.0047 H   0  0  0  0  0  0  0  0  0  0  0  0
    0.6704   -0.9139    0.0059 N   0  0  0  0  0  0  0  0  0  0  0  0
   -0.6511   -0.9424    0.0061 C   0  0  0  0  0  0  0  0  0  0  0  0
   -1.2140   -1.7641    0.0118 H   0  0  0  0  0  0  0  0  0  0  0  0
   -1.0928    0.2986   -0.0000 N   0  0  0  0  0  0  0  0  0  0  0  0
   -2.0545    0.5751    0.0029 H   0  0  0  0  0  0  0  0  0  0  0  0
  1  5  1  0
  5  6  1  0
  5  9  2  0
  1  2  1  0
  1  3  1  0
  1  4  1  0
  6  7  1  0
  6  8  1  0
 10 14  1  0
 14 15  2  0
 15 17  1  0
 17 18  2  0
 18 20  1  0
 20 14  1  0
 10 11  1  0
 10 12  1  0
 10 13  1  0
 15 16  1  0
 18 19  1  0
 20 21  1  0
M  END
>  <PDB_ID>  (8) 
pdb1bli

>  <RESIDUE_NAME>  (8) 
GLN   HID

>  <FRAG_NAME>  (8) 
ACEM   MIMD

>  <FRAG_ATOM_NUM>  (8) 
fragi: 9  fragj: 12

>  <atom.prop.CHAIN_ID>  (8) 
A A A A A A A A A Z Z Z Z Z Z Z Z Z Z Z Z

>  <atom.prop.IS_HEAVY_ATOM>  (8) 
1 0 0 0 1 1 0 0 1 1 0 0 0 1 1 0 1 1 0 1 0

>  <DIFUSE_FUNC_ATOM>  (8) 
n/a

>  <FINAL_SINGLE_POINT_ENERGY>  (8) 
0

>  <NONCOV_INTER_ENERGY_QM>  (8) 
0

>  <FF_Energy>  (8) 
2.47

>  <QM_Energy>  (8) 
8.05

>  <source>  (8) 
ACEM_MIMD

>  <Index>  (8) 
1369

$$$$
ACEM-pdb1c8u-A-GLN-278:MIMD-pdb1c8u-A-HID-231
     RDKit          3D

 21 20  0  0  0  0  0  0  0  0999 V2000
   -4.8537    2.1875   -0.7616 C   0  0  0  0  0  0  0  0  0  0  0  0
   -5.8414    2.2832   -0.9120 H   0  0  0  0  0  0  0  0  0  0  0  0
   -4.4648    3.0924   -0.5685 H   0  0  0  0  0  0  0  0  0  0  0  0
   -4.7008    1.5556    0.1133 H   0  0  0  0  0  0  0  0  0  0  0  0
   -4.2191    1.6487   -2.0386 C   0  0  0  0  0  0  0  0  0  0  0  0
   -3.0993    1.1293   -2.0210 N   0  0  0  0  0  0  0  0  0  0  0  0
   -2.6191    0.7350   -2.8357 H   0  0  0  0  0  0  0  0  0  0  0  0
   -2.5630    1.0689   -1.1127 H   0  0  0  0  0  0  0  0  0  0  0  0
   -4.9230    1.7964   -3.1566 O   0  0  0  0  0  0  0  0  0  0  0  0
   -0.1769    2.6530   -0.0063 C   0  0  0  0  0  0  0  0  0  0  0  0
   -0.7408    2.9099   -0.7981 H   0  0  0  0  0  0  0  0  0  0  0  0
    0.7324    3.0691   -0.1131 H   0  0  0  0  0  0  0  0  0  0  0  0
   -0.6398    3.0412    0.9010 H   0  0  0  0  0  0  0  0  0  0  0  0
   -0.0166    1.1663   -0.0047 C   0  0  0  0  0  0  0  0  0  0  0  0
    1.0920    0.3892   -0.0000 C   0  0  0  0  0  0  0  0  0  0  0  0
    2.0371    0.7030    0.0019 H   0  0  0  0  0  0  0  0  0  0  0  0
    0.6685   -0.9187    0.0032 N   0  0  0  0  0  0  0  0  0  0  0  0
   -0.6519   -0.9411    0.0015 C   0  0  0  0  0  0  0  0  0  0  0  0
   -1.2195   -1.7598    0.0030 H   0  0  0  0  0  0  0  0  0  0  0  0
   -1.0920    0.3042    0.0000 N   0  0  0  0  0  0  0  0  0  0  0  0
   -2.0529    0.5807    0.0016 H   0  0  0  0  0  0  0  0  0  0  0  0
  1  5  1  0
  5  6  1  0
  5  9  2  0
  1  2  1  0
  1  3  1  0
  1  4  1  0
  6  7  1  0
  6  8  1  0
 10 14  1  0
 14 15  2  0
 15 17  1  0
 17 18  2  0
 18 20  1  0
 20 14  1  0
 10 11  1  0
 10 12  1  0
 10 13  1  0
 15 16  1  0
 18 19  1  0
 20 21  1  0
M  END
>  <PDB_ID>  (9) 
pdb1c8u

>  <RESIDUE_NAME>  (9) 
GLN   HID

>  <FRAG_NAME>  (9) 
ACEM   MIMD

>  <FRAG_ATOM_NUM>  (9) 
fragi: 9  fragj: 12

>  <atom.prop.CHAIN_ID>  (9) 
A A A A A A A A A Z Z Z Z Z Z Z Z Z Z Z Z

>  <atom.prop.IS_HEAVY_ATOM>  (9) 
1 0 0 0 1 1 0 0 1 1 0 0 0 1 1 0 1 1 0 1 0

>  <DIFUSE_FUNC_ATOM>  (9) 
n/a

>  <FINAL_SINGLE_POINT_ENERGY>  (9) 
0

>  <NONCOV_INTER_ENERGY_QM>  (9) 
0

>  <FF_Energy>  (9) 
5.19

>  <QM_Energy>  (9) 
10.55

>  <source>  (9) 
ACEM_MIMD

>  <Index>  (9) 
1733

$$$$
ACEM-pdb1c8u-B-GLN-278:MIMD-pdb1c8u-B-HID-231
     RDKit          3D

 21 20  0  0  0  0  0  0  0  0999 V2000
   -4.7081    2.3245   -0.7166 C   0  0  0  0  0  0  0  0  0  0  0  0
   -5.6723    2.5325   -0.8857 H   0  0  0  0  0  0  0  0  0  0  0  0
   -4.2079    3.1755   -0.5529 H   0  0  0  0  0  0  0  0  0  0  0  0
   -4.6365    1.7000    0.1740 H   0  0  0  0  0  0  0  0  0  0  0  0
   -4.1334    1.6619   -1.9708 C   0  0  0  0  0  0  0  0  0  0  0  0
   -3.0573    1.0532   -1.9354 N   0  0  0  0  0  0  0  0  0  0  0  0
   -2.6252    0.5787   -2.7284 H   0  0  0  0  0  0  0  0  0  0  0  0
   -2.5166    1.0015   -1.0296 H   0  0  0  0  0  0  0  0  0  0  0  0
   -4.8401    1.7947   -3.0844 O   0  0  0  0  0  0  0  0  0  0  0  0
   -0.1763    2.6584   -0.0256 C   0  0  0  0  0  0  0  0  0  0  0  0
   -0.7780    2.9008   -0.7963 H   0  0  0  0  0  0  0  0  0  0  0  0
    0.7289    3.0697   -0.1880 H   0  0  0  0  0  0  0  0  0  0  0  0
   -0.5926    3.0712    0.8932 H   0  0  0  0  0  0  0  0  0  0  0  0
   -0.0174    1.1688   -0.0054 C   0  0  0  0  0  0  0  0  0  0  0  0
    1.0916    0.3899   -0.0000 C   0  0  0  0  0  0  0  0  0  0  0  0
    2.0366    0.7047    0.0029 H   0  0  0  0  0  0  0  0  0  0  0  0
    0.6688   -0.9188    0.0030 N   0  0  0  0  0  0  0  0  0  0  0  0
   -0.6514   -0.9429    0.0024 C   0  0  0  0  0  0  0  0  0  0  0  0
   -1.2185   -1.7617    0.0046 H   0  0  0  0  0  0  0  0  0  0  0  0
   -1.0916    0.3030    0.0000 N   0  0  0  0  0  0  0  0  0  0  0  0
   -2.0531    0.5786    0.0007 H   0  0  0  0  0  0  0  0  0  0  0  0
  1  5  1  0
  5  6  1  0
  5  9  2  0
  1  2  1  0
  1  3  1  0
  1  4  1  0
  6  7  1  0
  6  8  1  0
 10 14  1  0
 14 15  2  0
 15 17  1  0
 17 18  2  0
 18 20  1  0
 20 14  1  0
 10 11  1  0
 10 12  1  0
 10 13  1  0
 15 16  1  0
 18 19  1  0
 20 21  1  0
M  END
>  <PDB_ID>  (10) 
pdb1c8u

>  <RESIDUE_NAME>  (10) 
GLN   HID

>  <FRAG_NAME>  (10) 
ACEM   MIMD

>  <FRAG_ATOM_NUM>  (10) 
fragi: 9  fragj: 12

>  <atom.prop.CHAIN_ID>  (10) 
A A A A A A A A A Z Z Z Z Z Z Z Z Z Z Z Z

>  <atom.prop.IS_HEAVY_ATOM>  (10) 
1 0 0 0 1 1 0 0 1 1 0 0 0 1 1 0 1 1 0 1 0

>  <DIFUSE_FUNC_ATOM>  (10) 
n/a

>  <FINAL_SINGLE_POINT_ENERGY>  (10) 
0

>  <NONCOV_INTER_ENERGY_QM>  (10) 
0

>  <FF_Energy>  (10) 
7.3

>  <QM_Energy>  (10) 
15.32

>  <source>  (10) 
ACEM_MIMD

>  <Index>  (10) 
1734

$$$$
ACEM-pdb2cwx-A-GLN-309:MIMD-pdb2cwx-A-HID-276
     RDKit          3D

 21 20  0  0  0  0  0  0  0  0999 V2000
   -4.2736    2.3428    2.0940 C   0  0  0  0  0  0  0  0  0  0  0  0
   -5.0909    2.7384    2.5802 H   0  0  0  0  0  0  0  0  0  0  0  0
   -3.6035    3.1224    2.0274 H   0  0  0  0  0  0  0  0  0  0  0  0
   -3.8462    1.5270    2.6769 H   0  0  0  0  0  0  0  0  0  0  0  0
   -4.7110    2.0204    0.6974 C   0  0  0  0  0  0  0  0  0  0  0  0
   -3.8950    1.2417    0.0282 N   0  0  0  0  0  0  0  0  0  0  0  0
   -4.1209    0.9517   -0.9452 H   0  0  0  0  0  0  0  0  0  0  0  0
   -3.0346    0.9169    0.4577 H   0  0  0  0  0  0  0  0  0  0  0  0
   -5.8389    2.3386    0.2678 O   0  0  0  0  0  0  0  0  0  0  0  0
   -0.1666    2.6468    0.0003 C   0  0  0  0  0  0  0  0  0  0  0  0
   -1.1044    2.8782   -0.2716 H   0  0  0  0  0  0  0  0  0  0  0  0
    0.4716    3.0465   -0.6634 H   0  0  0  0  0  0  0  0  0  0  0  0
    0.0327    3.0750    0.9827 H   0  0  0  0  0  0  0  0  0  0  0  0
   -0.0160    1.1632   -0.0317 C   0  0  0  0  0  0  0  0  0  0  0  0
    1.0887    0.3807   -0.0000 C   0  0  0  0  0  0  0  0  0  0  0  0
    2.0356    0.6977    0.0012 H   0  0  0  0  0  0  0  0  0  0  0  0
    0.6678   -0.9180    0.0310 N   0  0  0  0  0  0  0  0  0  0  0  0
   -0.6518   -0.9366    0.0007 C   0  0  0  0  0  0  0  0  0  0  0  0
   -1.2226   -1.7535   -0.0175 H   0  0  0  0  0  0  0  0  0  0  0  0
   -1.0887    0.3107    0.0000 N   0  0  0  0  0  0  0  0  0  0  0  0
   -2.0498    0.5871    0.0182 H   0  0  0  0  0  0  0  0  0  0  0  0
  1  5  1  0
  5  6  1  0
  5  9  2  0
  1  2  1  0
  1  3  1  0
  1  4  1  0
  6  7  1  0
  6  8  1  0
 10 14  1  0
 14 15  2  0
 15 17  1  0
 17 18  2  0
 18 20  1  0
 20 14  1  0
 10 11  1  0
 10 12  1  0
 10 13  1  0
 15 16  1  0
 18 19  1  0
 20 21  1  0
M  END
>  <PDB_ID>  (11) 
pdb2cwx

>  <RESIDUE_NAME>  (11) 
GLN   HID

>  <FRAG_NAME>  (11) 
ACEM   MIMD

>  <FRAG_ATOM_NUM>  (11) 
fragi: 9  fragj: 12

>  <atom.prop.CHAIN_ID>  (11) 
A A A A A A A A A Z Z Z Z Z Z Z Z Z Z Z Z

>  <atom.prop.IS_HEAVY_ATOM>  (11) 
1 0 0 0 1 1 0 0 1 1 0 0 0 1 1 0 1 1 0 1 0

>  <DIFUSE_FUNC_ATOM>  (11) 
n/a

>  <FINAL_SINGLE_POINT_ENERGY>  (11) 
0

>  <NONCOV_INTER_ENERGY_QM>  (11) 
0

>  <FF_Energy>  (11) 
7.58

>  <QM_Energy>  (11) 
17.41

>  <source>  (11) 
ACEM_MIMD

>  <Index>  (11) 
1770

$$$$
ACEM-pdb2cwx-E-GLN-309:MIMD-pdb2cwx-E-HID-276
     RDKit          3D

 21 20  0  0  0  0  0  0  0  0999 V2000
   -4.7601    2.1642    1.7773 C   0  0  0  0  0  0  0  0  0  0  0  0
   -5.6985    1.9910    2.1580 H   0  0  0  0  0  0  0  0  0  0  0  0
   -4.5625    3.1514    1.9814 H   0  0  0  0  0  0  0  0  0  0  0  0
   -4.0387    1.5373    2.3015 H   0  0  0  0  0  0  0  0  0  0  0  0
   -4.8290    2.0070    0.3044 C   0  0  0  0  0  0  0  0  0  0  0  0
   -3.7939    1.3941   -0.1954 N   0  0  0  0  0  0  0  0  0  0  0  0
   -3.7405    1.2131   -1.2393 H   0  0  0  0  0  0  0  0  0  0  0  0
   -3.0342    1.0860    0.3930 H   0  0  0  0  0  0  0  0  0  0  0  0
   -5.8025    2.4243   -0.4092 O   0  0  0  0  0  0  0  0  0  0  0  0
   -0.1660    2.6384   -0.0115 C   0  0  0  0  0  0  0  0  0  0  0  0
   -1.0703    2.8812   -0.3639 H   0  0  0  0  0  0  0  0  0  0  0  0
    0.5374    3.0502   -0.5915 H   0  0  0  0  0  0  0  0  0  0  0  0
   -0.0665    3.0507    0.9926 H   0  0  0  0  0  0  0  0  0  0  0  0
   -0.0148    1.1606   -0.0412 C   0  0  0  0  0  0  0  0  0  0  0  0
    1.0885    0.3842   -0.0000 C   0  0  0  0  0  0  0  0  0  0  0  0
    2.0356    0.7011    0.0062 H   0  0  0  0  0  0  0  0  0  0  0  0
    0.6676   -0.9148    0.0332 N   0  0  0  0  0  0  0  0  0  0  0  0
   -0.6529   -0.9364    0.0081 C   0  0  0  0  0  0  0  0  0  0  0  0
   -1.2199   -1.7554   -0.0015 H   0  0  0  0  0  0  0  0  0  0  0  0
   -1.0885    0.3064    0.0000 N   0  0  0  0  0  0  0  0  0  0  0  0
   -2.0495    0.5856    0.0198 H   0  0  0  0  0  0  0  0  0  0  0  0
  1  5  1  0
  5  6  1  0
  5  9  2  0
  1  2  1  0
  1  3  1  0
  1  4  1  0
  6  7  1  0
  6  8  1  0
 10 14  1  0
 14 15  2  0
 15 17  1  0
 17 18  2  0
 18 20  1  0
 20 14  1  0
 10 11  1  0
 10 12  1  0
 10 13  1  0
 15 16  1  0
 18 19  1  0
 20 21  1  0
M  END
>  <PDB_ID>  (12) 
pdb2cwx

>  <RESIDUE_NAME>  (12) 
GLN   HID

>  <FRAG_NAME>  (12) 
ACEM   MIMD

>  <FRAG_ATOM_NUM>  (12) 
fragi: 9  fragj: 12

>  <atom.prop.CHAIN_ID>  (12) 
A A A A A A A A A Z Z Z Z Z Z Z Z Z Z Z Z

>  <atom.prop.IS_HEAVY_ATOM>  (12) 
1 0 0 0 1 1 0 0 1 1 0 0 0 1 1 0 1 1 0 1 0

>  <DIFUSE_FUNC_ATOM>  (12) 
n/a

>  <FINAL_SINGLE_POINT_ENERGY>  (12) 
0

>  <NONCOV_INTER_ENERGY_QM>  (12) 
0

>  <FF_Energy>  (12) 
7.37

>  <QM_Energy>  (12) 
16.35

>  <source>  (12) 
ACEM_MIMD

>  <Index>  (12) 
1773

$$$$
ACEM-pdb1chu-A-ASN-390:MIMD-pdb1chu-A-HID-66
     RDKit          3D

 21 20  0  0  0  0  0  0  0  0999 V2000
   -0.7380   -5.8709   -1.8784 C   0  0  0  0  0  0  0  0  0  0  0  0
   -0.1659   -6.2223   -2.6161 H   0  0  0  0  0  0  0  0  0  0  0  0
   -1.6380   -6.3001   -1.9137 H   0  0  0  0  0  0  0  0  0  0  0  0
   -0.2743   -6.1691   -0.9381 H   0  0  0  0  0  0  0  0  0  0  0  0
   -0.8909   -4.3740   -2.0350 C   0  0  0  0  0  0  0  0  0  0  0  0
   -0.8796   -3.4999   -1.0293 N   0  0  0  0  0  0  0  0  0  0  0  0
   -0.7474   -3.9585   -0.1095 H   0  0  0  0  0  0  0  0  0  0  0  0
   -0.9810   -2.5618   -1.1402 H   0  0  0  0  0  0  0  0  0  0  0  0
   -1.0958   -3.9035   -3.1483 O   0  0  0  0  0  0  0  0  0  0  0  0
   -0.2363    2.6337    0.1675 C   0  0  0  0  0  0  0  0  0  0  0  0
    0.4199    3.0174    0.7682 H   0  0  0  0  0  0  0  0  0  0  0  0
   -1.1580    2.8179    0.3993 H   0  0  0  0  0  0  0  0  0  0  0  0
   -0.0485    3.0051   -0.8400 H   0  0  0  0  0  0  0  0  0  0  0  0
   -0.0308    1.1482    0.0895 C   0  0  0  0  0  0  0  0  0  0  0  0
    1.1039    0.4156   -0.0000 C   0  0  0  0  0  0  0  0  0  0  0  0
    2.0289    0.7345   -0.0288 H   0  0  0  0  0  0  0  0  0  0  0  0
    0.6750   -0.9076   -0.0414 N   0  0  0  0  0  0  0  0  0  0  0  0
   -0.6443   -0.9495   -0.0481 C   0  0  0  0  0  0  0  0  0  0  0  0
   -1.2021   -1.7738   -0.0821 H   0  0  0  0  0  0  0  0  0  0  0  0
   -1.1039    0.2933   -0.0000 N   0  0  0  0  0  0  0  0  0  0  0  0
   -2.0605    0.5594   -0.0250 H   0  0  0  0  0  0  0  0  0  0  0  0
  1  5  1  0
  5  6  1  0
  5  9  2  0
  1  2  1  0
  1  3  1  0
  1  4  1  0
  6  7  1  0
  6  8  1  0
 10 14  1  0
 14 15  2  0
 15 17  1  0
 17 18  2  0
 18 20  1  0
 20 14  1  0
 10 11  1  0
 10 12  1  0
 10 13  1  0
 15 16  1  0
 18 19  1  0
 20 21  1  0
M  END
>  <PDB_ID>  (13) 
pdb1chu

>  <RESIDUE_NAME>  (13) 
ASN   HID

>  <FRAG_NAME>  (13) 
ACEM   MIMD

>  <FRAG_ATOM_NUM>  (13) 
fragi: 9  fragj: 12

>  <atom.prop.CHAIN_ID>  (13) 
A A A A A A A A A Z Z Z Z Z Z Z Z Z Z Z Z

>  <atom.prop.IS_HEAVY_ATOM>  (13) 
1 0 0 0 1 1 0 0 1 1 0 0 0 1 1 0 1 1 0 1 0

>  <DIFUSE_FUNC_ATOM>  (13) 
n/a

>  <FINAL_SINGLE_POINT_ENERGY>  (13) 
0

>  <NONCOV_INTER_ENERGY_QM>  (13) 
0

>  <FF_Energy>  (13) 
5.56

>  <QM_Energy>  (13) 
11.97

>  <source>  (13) 
ACEM_MIMD

>  <Index>  (13) 
1898

$$$$
ACEM-pdb1ciu-A-GLN-19:MIMD-pdb1ciu-A-HID-328
     RDKit          3D

 21 20  0  0  0  0  0  0  0  0999 V2000
   -5.0984    0.1735    3.1041 C   0  0  0  0  0  0  0  0  0  0  0  0
   -4.7410    0.7943    3.8037 H   0  0  0  0  0  0  0  0  0  0  0  0
   -4.9616   -0.7731    3.4000 H   0  0  0  0  0  0  0  0  0  0  0  0
   -6.1687    0.3512    2.9988 H   0  0  0  0  0  0  0  0  0  0  0  0
   -4.3329    0.3982    1.8183 C   0  0  0  0  0  0  0  0  0  0  0  0
   -3.0128    0.3932    1.9113 N   0  0  0  0  0  0  0  0  0  0  0  0
   -2.4276    0.5235    1.0857 H   0  0  0  0  0  0  0  0  0  0  0  0
   -2.5815    0.2569    2.8247 H   0  0  0  0  0  0  0  0  0  0  0  0
   -4.9239    0.5846    0.7529 O   0  0  0  0  0  0  0  0  0  0  0  0
   -0.1790    2.6531   -0.0079 C   0  0  0  0  0  0  0  0  0  0  0  0
    0.7173    3.0754    0.1514 H   0  0  0  0  0  0  0  0  0  0  0  0
   -0.7998    2.9194    0.7340 H   0  0  0  0  0  0  0  0  0  0  0  0
   -0.5800    3.0309   -0.9484 H   0  0  0  0  0  0  0  0  0  0  0  0
   -0.0176    1.1668    0.0147 C   0  0  0  0  0  0  0  0  0  0  0  0
    1.0904    0.3905   -0.0000 C   0  0  0  0  0  0  0  0  0  0  0  0
    2.0356    0.7053   -0.0047 H   0  0  0  0  0  0  0  0  0  0  0  0
    0.6683   -0.9169   -0.0054 N   0  0  0  0  0  0  0  0  0  0  0  0
   -0.6507   -0.9428   -0.0094 C   0  0  0  0  0  0  0  0  0  0  0  0
   -1.2177   -1.7616   -0.0168 H   0  0  0  0  0  0  0  0  0  0  0  0
   -1.0904    0.3025    0.0000 N   0  0  0  0  0  0  0  0  0  0  0  0
   -2.0518    0.5786   -0.0036 H   0  0  0  0  0  0  0  0  0  0  0  0
  1  5  1  0
  5  6  1  0
  5  9  2  0
  1  2  1  0
  1  3  1  0
  1  4  1  0
  6  7  1  0
  6  8  1  0
 10 14  1  0
 14 15  2  0
 15 17  1  0
 17 18  2  0
 18 20  1  0
 20 14  1  0
 10 11  1  0
 10 12  1  0
 10 13  1  0
 15 16  1  0
 18 19  1  0
 20 21  1  0
M  END
>  <PDB_ID>  (14) 
pdb1ciu

>  <RESIDUE_NAME>  (14) 
GLN   HID

>  <FRAG_NAME>  (14) 
ACEM   MIMD

>  <FRAG_ATOM_NUM>  (14) 
fragi: 9  fragj: 12

>  <atom.prop.CHAIN_ID>  (14) 
A A A A A A A A A Z Z Z Z Z Z Z Z Z Z Z Z

>  <atom.prop.IS_HEAVY_ATOM>  (14) 
1 0 0 0 1 1 0 0 1 1 0 0 0 1 1 0 1 1 0 1 0

>  <DIFUSE_FUNC_ATOM>  (14) 
n/a

>  <FINAL_SINGLE_POINT_ENERGY>  (14) 
0

>  <NONCOV_INTER_ENERGY_QM>  (14) 
0

>  <FF_Energy>  (14) 
7.86

>  <QM_Energy>  (14) 
17.57

>  <source>  (14) 
ACEM_MIMD

>  <Index>  (14) 
1926

$$$$
ACEM-pdb1clw-A-GLN-592:MIMD-pdb1clw-A-HID-579
     RDKit          3D

 21 20  0  0  0  0  0  0  0  0999 V2000
   -3.9081   -2.2190    0.0868 C   0  0  0  0  0  0  0  0  0  0  0  0
   -3.4879   -1.3072    0.1050 H   0  0  0  0  0  0  0  0  0  0  0  0
   -3.6093   -2.7308    0.8972 H   0  0  0  0  0  0  0  0  0  0  0  0
   -4.9941   -2.1263    0.0861 H   0  0  0  0  0  0  0  0  0  0  0  0
   -3.3691   -2.9501   -1.1461 C   0  0  0  0  0  0  0  0  0  0  0  0
   -2.1134   -3.3516   -1.0693 N   0  0  0  0  0  0  0  0  0  0  0  0
   -1.6834   -3.8594   -1.8456 H   0  0  0  0  0  0  0  0  0  0  0  0
   -1.5756   -3.1502   -0.2308 H   0  0  0  0  0  0  0  0  0  0  0  0
   -4.0662   -3.1673   -2.1339 O   0  0  0  0  0  0  0  0  0  0  0  0
   -0.1730    2.6485   -0.0649 C   0  0  0  0  0  0  0  0  0  0  0  0
   -1.1027    2.8542   -0.4057 H   0  0  0  0  0  0  0  0  0  0  0  0
    0.4880    3.0097   -0.7393 H   0  0  0  0  0  0  0  0  0  0  0  0
   -0.0234    3.1602    0.8858 H   0  0  0  0  0  0  0  0  0  0  0  0
   -0.0145    1.1663   -0.0051 C   0  0  0  0  0  0  0  0  0  0  0  0
    1.0897    0.3875   -0.0000 C   0  0  0  0  0  0  0  0  0  0  0  0
    2.0368    0.7008    0.0016 H   0  0  0  0  0  0  0  0  0  0  0  0
    0.6666   -0.9181    0.0036 N   0  0  0  0  0  0  0  0  0  0  0  0
   -0.6521   -0.9404    0.0015 C   0  0  0  0  0  0  0  0  0  0  0  0
   -1.2207   -1.7588    0.0025 H   0  0  0  0  0  0  0  0  0  0  0  0
   -1.0897    0.3046   -0.0000 N   0  0  0  0  0  0  0  0  0  0  0  0
   -2.0501    0.5823    0.0012 H   0  0  0  0  0  0  0  0  0  0  0  0
  1  5  1  0
  5  6  1  0
  5  9  2  0
  1  2  1  0
  1  3  1  0
  1  4  1  0
  6  7  1  0
  6  8  1  0
 10 14  1  0
 14 15  2  0
 15 17  1  0
 17 18  2  0
 18 20  1  0
 20 14  1  0
 10 11  1  0
 10 12  1  0
 10 13  1  0
 15 16  1  0
 18 19  1  0
 20 21  1  0
M  END
>  <PDB_ID>  (15) 
pdb1clw

>  <RESIDUE_NAME>  (15) 
GLN   HID

>  <FRAG_NAME>  (15) 
ACEM   MIMD

>  <FRAG_ATOM_NUM>  (15) 
fragi: 9  fragj: 12

>  <atom.prop.CHAIN_ID>  (15) 
A A A A A A A A A Z Z Z Z Z Z Z Z Z Z Z Z

>  <atom.prop.IS_HEAVY_ATOM>  (15) 
1 0 0 0 1 1 0 0 1 1 0 0 0 1 1 0 1 1 0 1 0

>  <DIFUSE_FUNC_ATOM>  (15) 
n/a

>  <FINAL_SINGLE_POINT_ENERGY>  (15) 
0

>  <NONCOV_INTER_ENERGY_QM>  (15) 
0

>  <FF_Energy>  (15) 
1.32

>  <QM_Energy>  (15) 
6.95

>  <source>  (15) 
ACEM_MIMD

>  <Index>  (15) 
2003

$$$$
ACEM-pdb2d6k-A-ASN-47:MIMD-pdb2d6k-A-HID-60
     RDKit          3D

 21 20  0  0  0  0  0  0  0  0999 V2000
   -5.5394    2.6185    0.9937 C   0  0  0  0  0  0  0  0  0  0  0  0
   -6.4280    2.2335    1.2269 H   0  0  0  0  0  0  0  0  0  0  0  0
   -5.6378    3.2865    0.2610 H   0  0  0  0  0  0  0  0  0  0  0  0
   -5.1464    3.1297    1.8725 H   0  0  0  0  0  0  0  0  0  0  0  0
   -4.6364    1.5019    0.5151 C   0  0  0  0  0  0  0  0  0  0  0  0
   -3.3476    1.6841    0.7050 N   0  0  0  0  0  0  0  0  0  0  0  0
   -3.0044    2.5145    1.1472 H   0  0  0  0  0  0  0  0  0  0  0  0
   -2.6882    0.9834    0.4061 H   0  0  0  0  0  0  0  0  0  0  0  0
   -5.0929    0.4767   -0.0288 O   0  0  0  0  0  0  0  0  0  0  0  0
   -0.1568    2.6766   -0.0491 C   0  0  0  0  0  0  0  0  0  0  0  0
   -0.8774    2.8847   -0.7295 H   0  0  0  0  0  0  0  0  0  0  0  0
    0.7129    3.0539   -0.4054 H   0  0  0  0  0  0  0  0  0  0  0  0
   -0.4005    3.1738    0.8898 H   0  0  0  0  0  0  0  0  0  0  0  0
   -0.0118    1.1741    0.0236 C   0  0  0  0  0  0  0  0  0  0  0  0
    1.0956    0.3828    0.0000 C   0  0  0  0  0  0  0  0  0  0  0  0
    2.0415    0.6942   -0.0042 H   0  0  0  0  0  0  0  0  0  0  0  0
    0.6666   -0.9242   -0.0158 N   0  0  0  0  0  0  0  0  0  0  0  0
   -0.6549   -0.9414   -0.0078 C   0  0  0  0  0  0  0  0  0  0  0  0
   -1.2260   -1.7578   -0.0062 H   0  0  0  0  0  0  0  0  0  0  0  0
   -1.0956    0.3087   -0.0000 N   0  0  0  0  0  0  0  0  0  0  0  0
   -2.0525    0.5879   -0.0104 H   0  0  0  0  0  0  0  0  0  0  0  0
  1  5  1  0
  5  6  1  0
  5  9  2  0
  1  2  1  0
  1  3  1  0
  1  4  1  0
  6  7  1  0
  6  8  1  0
 10 14  1  0
 14 15  2  0
 15 17  1  0
 17 18  2  0
 18 20  1  0
 20 14  1  0
 10 11  1  0
 10 12  1  0
 10 13  1  0
 15 16  1  0
 18 19  1  0
 20 21  1  0
M  END
>  <PDB_ID>  (16) 
pdb2d6k

>  <RESIDUE_NAME>  (16) 
ASN   HID

>  <FRAG_NAME>  (16) 
ACEM   MIMD

>  <FRAG_ATOM_NUM>  (16) 
fragi: 9  fragj: 12

>  <atom.prop.CHAIN_ID>  (16) 
A A A A A A A A A Z Z Z Z Z Z Z Z Z Z Z Z

>  <atom.prop.IS_HEAVY_ATOM>  (16) 
1 0 0 0 1 1 0 0 1 1 0 0 0 1 1 0 1 1 0 1 0

>  <DIFUSE_FUNC_ATOM>  (16) 
n/a

>  <FINAL_SINGLE_POINT_ENERGY>  (16) 
0

>  <NONCOV_INTER_ENERGY_QM>  (16) 
0

>  <FF_Energy>  (16) 
15.56

>  <QM_Energy>  (16) 
42.55

>  <source>  (16) 
ACEM_MIMD

>  <Index>  (16) 
2028

$$$$
ACEM-pdb1cxp-C-ASN-421:MIMD-pdb1cxp-C-HID-336
     RDKit          3D

 21 20  0  0  0  0  0  0  0  0999 V2000
   -5.9123   -1.3221    0.4322 C   0  0  0  0  0  0  0  0  0  0  0  0
   -6.4843   -0.5562    0.1165 H   0  0  0  0  0  0  0  0  0  0  0  0
   -5.9700   -1.3695    1.4369 H   0  0  0  0  0  0  0  0  0  0  0  0
   -6.3460   -2.2401    0.0357 H   0  0  0  0  0  0  0  0  0  0  0  0
   -4.4610   -1.0368    0.0427 C   0  0  0  0  0  0  0  0  0  0  0  0
   -4.0133    0.2071    0.2136 N   0  0  0  0  0  0  0  0  0  0  0  0
   -4.6382    0.8974    0.5926 H   0  0  0  0  0  0  0  0  0  0  0  0
   -3.0829    0.4463   -0.0277 H   0  0  0  0  0  0  0  0  0  0  0  0
   -3.7556   -1.9463   -0.4123 O   0  0  0  0  0  0  0  0  0  0  0  0
   -0.1942    2.6373    0.0116 C   0  0  0  0  0  0  0  0  0  0  0  0
   -0.9686    2.8660    0.6047 H   0  0  0  0  0  0  0  0  0  0  0  0
   -0.3981    2.9310   -0.9242 H   0  0  0  0  0  0  0  0  0  0  0  0
    0.6965    3.1566    0.3654 H   0  0  0  0  0  0  0  0  0  0  0  0
   -0.0461    1.1243    0.0024 C   0  0  0  0  0  0  0  0  0  0  0  0
    1.1489    0.4269   -0.0000 C   0  0  0  0  0  0  0  0  0  0  0  0
    2.0355    0.7477   -0.0004 H   0  0  0  0  0  0  0  0  0  0  0  0
    0.6771   -0.8936    0.0006 N   0  0  0  0  0  0  0  0  0  0  0  0
   -0.6310   -0.9444   -0.0030 C   0  0  0  0  0  0  0  0  0  0  0  0
   -1.1829   -1.7887   -0.0059 H   0  0  0  0  0  0  0  0  0  0  0  0
   -1.1489    0.2869    0.0000 N   0  0  0  0  0  0  0  0  0  0  0  0
   -2.0801    0.5365    0.0001 H   0  0  0  0  0  0  0  0  0  0  0  0
  1  5  1  0
  5  6  1  0
  5  9  2  0
  1  2  1  0
  1  3  1  0
  1  4  1  0
  6  7  1  0
  6  8  1  0
 10 14  1  0
 14 15  2  0
 15 17  1  0
 17 18  2  0
 18 20  1  0
 20 14  1  0
 10 11  1  0
 10 12  1  0
 10 13  1  0
 15 16  1  0
 18 19  1  0
 20 21  1  0
M  END
>  <PDB_ID>  (17) 
pdb1cxp

>  <RESIDUE_NAME>  (17) 
ASN   HID

>  <FRAG_NAME>  (17) 
ACEM   MIMD

>  <FRAG_ATOM_NUM>  (17) 
fragi: 9  fragj: 12

>  <atom.prop.CHAIN_ID>  (17) 
A A A A A A A A A Z Z Z Z Z Z Z Z Z Z Z Z

>  <atom.prop.IS_HEAVY_ATOM>  (17) 
1 0 0 0 1 1 0 0 1 1 0 0 0 1 1 0 1 1 0 1 0

>  <DIFUSE_FUNC_ATOM>  (17) 
n/a

>  <FINAL_SINGLE_POINT_ENERGY>  (17) 
0

>  <NONCOV_INTER_ENERGY_QM>  (17) 
0

>  <FF_Energy>  (17) 
8.97

>  <QM_Energy>  (17) 
25.32

>  <source>  (17) 
ACEM_MIMD

>  <Index>  (17) 
2164

$$$$
ACEM-pdb1cxp-D-ASN-421:MIMD-pdb1cxp-D-HID-336
     RDKit          3D

 21 20  0  0  0  0  0  0  0  0999 V2000
   -5.9872   -1.0948    0.8299 C   0  0  0  0  0  0  0  0  0  0  0  0
   -6.5071   -0.3361    0.4254 H   0  0  0  0  0  0  0  0  0  0  0  0
   -6.0209   -1.0127    1.8305 H   0  0  0  0  0  0  0  0  0  0  0  0
   -6.4773   -2.0275    0.5503 H   0  0  0  0  0  0  0  0  0  0  0  0
   -4.5262   -0.9646    0.3869 C   0  0  0  0  0  0  0  0  0  0  0  0
   -3.9855    0.2468    0.4000 N   0  0  0  0  0  0  0  0  0  0  0  0
   -4.5488    1.0255    0.7026 H   0  0  0  0  0  0  0  0  0  0  0  0
   -3.0448    0.3862    0.1172 H   0  0  0  0  0  0  0  0  0  0  0  0
   -3.9019   -1.9746    0.0223 O   0  0  0  0  0  0  0  0  0  0  0  0
   -0.1753    2.6483   -0.0634 C   0  0  0  0  0  0  0  0  0  0  0  0
   -0.8620    2.9170    0.6122 H   0  0  0  0  0  0  0  0  0  0  0  0
   -0.4985    2.8879   -0.9793 H   0  0  0  0  0  0  0  0  0  0  0  0
    0.7614    3.1669    0.1410 H   0  0  0  0  0  0  0  0  0  0  0  0
   -0.0414    1.1287   -0.0056 C   0  0  0  0  0  0  0  0  0  0  0  0
    1.1526    0.4175    0.0000 C   0  0  0  0  0  0  0  0  0  0  0  0
    2.0405    0.7365    0.0029 H   0  0  0  0  0  0  0  0  0  0  0  0
    0.6754   -0.9000    0.0017 N   0  0  0  0  0  0  0  0  0  0  0  0
   -0.6340   -0.9436    0.0039 C   0  0  0  0  0  0  0  0  0  0  0  0
   -1.1926   -1.7838    0.0090 H   0  0  0  0  0  0  0  0  0  0  0  0
   -1.1526    0.2974   -0.0000 N   0  0  0  0  0  0  0  0  0  0  0  0
   -2.0796    0.5469    0.0004 H   0  0  0  0  0  0  0  0  0  0  0  0
  1  5  1  0
  5  6  1  0
  5  9  2  0
  1  2  1  0
  1  3  1  0
  1  4  1  0
  6  7  1  0
  6  8  1  0
 10 14  1  0
 14 15  2  0
 15 17  1  0
 17 18  2  0
 18 20  1  0
 20 14  1  0
 10 11  1  0
 10 12  1  0
 10 13  1  0
 15 16  1  0
 18 19  1  0
 20 21  1  0
M  END
>  <PDB_ID>  (18) 
pdb1cxp

>  <RESIDUE_NAME>  (18) 
ASN   HID

>  <FRAG_NAME>  (18) 
ACEM   MIMD

>  <FRAG_ATOM_NUM>  (18) 
fragi: 9  fragj: 12

>  <atom.prop.CHAIN_ID>  (18) 
A A A A A A A A A Z Z Z Z Z Z Z Z Z Z Z Z

>  <atom.prop.IS_HEAVY_ATOM>  (18) 
1 0 0 0 1 1 0 0 1 1 0 0 0 1 1 0 1 1 0 1 0

>  <DIFUSE_FUNC_ATOM>  (18) 
n/a

>  <FINAL_SINGLE_POINT_ENERGY>  (18) 
0

>  <NONCOV_INTER_ENERGY_QM>  (18) 
0

>  <FF_Energy>  (18) 
9.77

>  <QM_Energy>  (18) 
27.36

>  <source>  (18) 
ACEM_MIMD

>  <Index>  (18) 
2166

$$$$
ACEM-pdb1czd-C-GLN-3190:MIMD-pdb1czd-C-HID-3213
     RDKit          3D

 21 20  0  0  0  0  0  0  0  0999 V2000
    2.8870   -2.4074    2.4872 C   0  0  0  0  0  0  0  0  0  0  0  0
    3.1794   -2.4197    1.5282 H   0  0  0  0  0  0  0  0  0  0  0  0
    1.9289   -2.6967    2.5418 H   0  0  0  0  0  0  0  0  0  0  0  0
    3.5049   -3.0983    3.0608 H   0  0  0  0  0  0  0  0  0  0  0  0
    2.9734   -0.9635    2.9863 C   0  0  0  0  0  0  0  0  0  0  0  0
    2.2222   -0.0611    2.3677 N   0  0  0  0  0  0  0  0  0  0  0  0
    2.2209    0.9050    2.6569 H   0  0  0  0  0  0  0  0  0  0  0  0
    1.6378   -0.3660    1.5858 H   0  0  0  0  0  0  0  0  0  0  0  0
    3.7111   -0.6738    3.9164 O   0  0  0  0  0  0  0  0  0  0  0  0
   -0.1901    2.6870   -0.0148 C   0  0  0  0  0  0  0  0  0  0  0  0
    0.6522    3.0815    0.3256 H   0  0  0  0  0  0  0  0  0  0  0  0
   -0.9507    2.9038    0.5812 H   0  0  0  0  0  0  0  0  0  0  0  0
   -0.3910    3.0340   -1.0284 H   0  0  0  0  0  0  0  0  0  0  0  0
   -0.0182    1.1607    0.0030 C   0  0  0  0  0  0  0  0  0  0  0  0
    1.0914    0.3917    0.0000 C   0  0  0  0  0  0  0  0  0  0  0  0
    2.0350    0.7081   -0.0004 H   0  0  0  0  0  0  0  0  0  0  0  0
    0.6702   -0.9147   -0.0009 N   0  0  0  0  0  0  0  0  0  0  0  0
   -0.6520   -0.9397   -0.0021 C   0  0  0  0  0  0  0  0  0  0  0  0
   -1.2160   -1.7605   -0.0032 H   0  0  0  0  0  0  0  0  0  0  0  0
   -1.0914    0.3021    0.0000 N   0  0  0  0  0  0  0  0  0  0  0  0
   -2.0531    0.5793   -0.0013 H   0  0  0  0  0  0  0  0  0  0  0  0
  1  5  1  0
  5  6  1  0
  5  9  2  0
  1  2  1  0
  1  3  1  0
  1  4  1  0
  6  7  1  0
  6  8  1  0
 10 14  1  0
 14 15  2  0
 15 17  1  0
 17 18  2  0
 18 20  1  0
 20 14  1  0
 10 11  1  0
 10 12  1  0
 10 13  1  0
 15 16  1  0
 18 19  1  0
 20 21  1  0
M  END
>  <PDB_ID>  (19) 
pdb1czd

>  <RESIDUE_NAME>  (19) 
GLN   HID

>  <FRAG_NAME>  (19) 
ACEM   MIMD

>  <FRAG_ATOM_NUM>  (19) 
fragi: 9  fragj: 12

>  <atom.prop.CHAIN_ID>  (19) 
A A A A A A A A A Z Z Z Z Z Z Z Z Z Z Z Z

>  <atom.prop.IS_HEAVY_ATOM>  (19) 
1 0 0 0 1 1 0 0 1 1 0 0 0 1 1 0 1 1 0 1 0

>  <DIFUSE_FUNC_ATOM>  (19) 
n/a

>  <FINAL_SINGLE_POINT_ENERGY>  (19) 
0

>  <NONCOV_INTER_ENERGY_QM>  (19) 
0

>  <FF_Energy>  (19) 
-2.68

>  <QM_Energy>  (19) 
2.8

>  <source>  (19) 
ACEM_MIMD

>  <Index>  (19) 
2194

$$$$
ACEM-pdb1d8h-A-ASN-431:MIMD-pdb1d8h-A-HID-411
     RDKit          3D

 21 20  0  0  0  0  0  0  0  0999 V2000
   -4.6806    0.1619   -3.0558 C   0  0  0  0  0  0  0  0  0  0  0  0
   -5.5417   -0.1579   -3.0644 H   0  0  0  0  0  0  0  0  0  0  0  0
   -4.0167   -0.0751   -3.6455 H   0  0  0  0  0  0  0  0  0  0  0  0
   -4.7635    1.2469   -3.1194 H   0  0  0  0  0  0  0  0  0  0  0  0
   -4.1196    0.1066   -1.5901 C   0  0  0  0  0  0  0  0  0  0  0  0
   -3.0717    0.9958   -1.5712 N   0  0  0  0  0  0  0  0  0  0  0  0
   -2.7460    1.5410   -2.2772 H   0  0  0  0  0  0  0  0  0  0  0  0
   -2.5797    1.0693   -0.6448 H   0  0  0  0  0  0  0  0  0  0  0  0
   -4.3745   -0.7634   -0.7065 O   0  0  0  0  0  0  0  0  0  0  0  0
   -0.1240    2.6496   -0.2310 C   0  0  0  0  0  0  0  0  0  0  0  0
    0.7424    3.0566   -0.3346 H   0  0  0  0  0  0  0  0  0  0  0  0
   -0.6787    3.0098    0.4688 H   0  0  0  0  0  0  0  0  0  0  0  0
   -0.6605    2.7594   -1.1733 H   0  0  0  0  0  0  0  0  0  0  0  0
    0.0199    1.1744   -0.0613 C   0  0  0  0  0  0  0  0  0  0  0  0
    1.1034    0.3511   -0.0000 C   0  0  0  0  0  0  0  0  0  0  0  0
    2.0600    0.6374    0.0120 H   0  0  0  0  0  0  0  0  0  0  0  0
    0.6462   -0.9516    0.0443 N   0  0  0  0  0  0  0  0  0  0  0  0
   -0.6661   -0.9113    0.0170 C   0  0  0  0  0  0  0  0  0  0  0  0
   -1.2682   -1.7265    0.0111 H   0  0  0  0  0  0  0  0  0  0  0  0
   -1.1034    0.3375    0.0000 N   0  0  0  0  0  0  0  0  0  0  0  0
   -2.0382    0.6385    0.0241 H   0  0  0  0  0  0  0  0  0  0  0  0
  1  5  1  0
  5  6  1  0
  5  9  2  0
  1  2  1  0
  1  3  1  0
  1  4  1  0
  6  7  1  0
  6  8  1  0
 10 14  1  0
 14 15  2  0
 15 17  1  0
 17 18  2  0
 18 20  1  0
 20 14  1  0
 10 11  1  0
 10 12  1  0
 10 13  1  0
 15 16  1  0
 18 19  1  0
 20 21  1  0
M  END
>  <PDB_ID>  (20) 
pdb1d8h

>  <RESIDUE_NAME>  (20) 
ASN   HID

>  <FRAG_NAME>  (20) 
ACEM   MIMD

>  <FRAG_ATOM_NUM>  (20) 
fragi: 9  fragj: 12

>  <atom.prop.CHAIN_ID>  (20) 
A A A A A A A A A Z Z Z Z Z Z Z Z Z Z Z Z

>  <atom.prop.IS_HEAVY_ATOM>  (20) 
1 0 0 0 1 1 0 0 1 1 0 0 0 1 1 0 1 1 0 1 0

>  <DIFUSE_FUNC_ATOM>  (20) 
n/a

>  <FINAL_SINGLE_POINT_ENERGY>  (20) 
0

>  <NONCOV_INTER_ENERGY_QM>  (20) 
0

>  <FF_Energy>  (20) 
17.17

>  <QM_Energy>  (20) 
35.84

>  <source>  (20) 
ACEM_MIMD

>  <Index>  (20) 
2426

$$$$
ACEM-pdb2e3z-A-GLN-329:MIMD-pdb2e3z-A-HID-322
     RDKit          3D

 21 20  0  0  0  0  0  0  0  0999 V2000
   -5.6680    0.8531   -2.1894 C   0  0  0  0  0  0  0  0  0  0  0  0
   -6.6188    0.8439   -1.8852 H   0  0  0  0  0  0  0  0  0  0  0  0
   -5.5539    0.2304   -2.9613 H   0  0  0  0  0  0  0  0  0  0  0  0
   -5.4141    1.8622   -2.5139 H   0  0  0  0  0  0  0  0  0  0  0  0
   -4.7897    0.3821   -1.0501 C   0  0  0  0  0  0  0  0  0  0  0  0
   -3.4804    0.5316   -1.2063 N   0  0  0  0  0  0  0  0  0  0  0  0
   -2.8294    0.2509   -0.4772 H   0  0  0  0  0  0  0  0  0  0  0  0
   -3.1320    0.9349   -2.0768 H   0  0  0  0  0  0  0  0  0  0  0  0
   -5.2865   -0.1050   -0.0349 O   0  0  0  0  0  0  0  0  0  0  0  0
   -0.1726    2.6556    0.0597 C   0  0  0  0  0  0  0  0  0  0  0  0
   -0.8062    2.9341   -0.6692 H   0  0  0  0  0  0  0  0  0  0  0  0
    0.7236    3.0738   -0.1171 H   0  0  0  0  0  0  0  0  0  0  0  0
   -0.5499    3.0181    1.0159 H   0  0  0  0  0  0  0  0  0  0  0  0
   -0.0164    1.1679    0.0054 C   0  0  0  0  0  0  0  0  0  0  0  0
    1.0916    0.3893   -0.0000 C   0  0  0  0  0  0  0  0  0  0  0  0
    2.0372    0.7033   -0.0012 H   0  0  0  0  0  0  0  0  0  0  0  0
    0.6689   -0.9183   -0.0022 N   0  0  0  0  0  0  0  0  0  0  0  0
   -0.6525   -0.9429   -0.0031 C   0  0  0  0  0  0  0  0  0  0  0  0
   -1.2192   -1.7613   -0.0050 H   0  0  0  0  0  0  0  0  0  0  0  0
   -1.0916    0.3040   -0.0000 N   0  0  0  0  0  0  0  0  0  0  0  0
   -2.0524    0.5802   -0.0020 H   0  0  0  0  0  0  0  0  0  0  0  0
  1  5  1  0
  5  6  1  0
  5  9  2  0
  1  2  1  0
  1  3  1  0
  1  4  1  0
  6  7  1  0
  6  8  1  0
 10 14  1  0
 14 15  2  0
 15 17  1  0
 17 18  2  0
 18 20  1  0
 20 14  1  0
 10 11  1  0
 10 12  1  0
 10 13  1  0
 15 16  1  0
 18 19  1  0
 20 21  1  0
M  END
>  <PDB_ID>  (21) 
pdb2e3z

>  <RESIDUE_NAME>  (21) 
GLN   HID

>  <FRAG_NAME>  (21) 
ACEM   MIMD

>  <FRAG_ATOM_NUM>  (21) 
fragi: 9  fragj: 12

>  <atom.prop.CHAIN_ID>  (21) 
A A A A A A A A A Z Z Z Z Z Z Z Z Z Z Z Z

>  <atom.prop.IS_HEAVY_ATOM>  (21) 
1 0 0 0 1 1 0 0 1 1 0 0 0 1 1 0 1 1 0 1 0

>  <DIFUSE_FUNC_ATOM>  (21) 
n/a

>  <FINAL_SINGLE_POINT_ENERGY>  (21) 
0

>  <NONCOV_INTER_ENERGY_QM>  (21) 
0

>  <FF_Energy>  (21) 
14.68

>  <QM_Energy>  (21) 
32.19

>  <source>  (21) 
ACEM_MIMD

>  <Index>  (21) 
2550

$$$$
ACEM-pdb1dlc-A-ASN-139:MIMD-pdb1dlc-A-HID-176
     RDKit          3D

 21 20  0  0  0  0  0  0  0  0999 V2000
   -4.1023    2.0997   -2.9567 C   0  0  0  0  0  0  0  0  0  0  0  0
   -3.3495    1.7914   -3.5334 H   0  0  0  0  0  0  0  0  0  0  0  0
   -4.0767    3.0928   -2.8659 H   0  0  0  0  0  0  0  0  0  0  0  0
   -5.0404    1.8227   -3.4377 H   0  0  0  0  0  0  0  0  0  0  0  0
   -3.9383    1.4837   -1.5776 C   0  0  0  0  0  0  0  0  0  0  0  0
   -2.8706    1.8322   -0.8804 N   0  0  0  0  0  0  0  0  0  0  0  0
   -2.2171    2.4874   -1.2755 H   0  0  0  0  0  0  0  0  0  0  0  0
   -2.7105    1.4560    0.0270 H   0  0  0  0  0  0  0  0  0  0  0  0
   -4.7751    0.6990   -1.1462 O   0  0  0  0  0  0  0  0  0  0  0  0
   -0.1646    2.6664    0.0246 C   0  0  0  0  0  0  0  0  0  0  0  0
   -0.9947    2.8926    0.5490 H   0  0  0  0  0  0  0  0  0  0  0  0
   -0.2938    2.9843   -0.9222 H   0  0  0  0  0  0  0  0  0  0  0  0
    0.6826    3.1955    0.4610 H   0  0  0  0  0  0  0  0  0  0  0  0
   -0.0157    1.1708    0.0014 C   0  0  0  0  0  0  0  0  0  0  0  0
    1.0911    0.3889   -0.0000 C   0  0  0  0  0  0  0  0  0  0  0  0
    2.0372    0.7028   -0.0004 H   0  0  0  0  0  0  0  0  0  0  0  0
    0.6692   -0.9192    0.0001 N   0  0  0  0  0  0  0  0  0  0  0  0
   -0.6535   -0.9435   -0.0015 C   0  0  0  0  0  0  0  0  0  0  0  0
   -1.2199   -1.7614   -0.0019 H   0  0  0  0  0  0  0  0  0  0  0  0
   -1.0911    0.3030    0.0000 N   0  0  0  0  0  0  0  0  0  0  0  0
   -2.0518    0.5804   -0.0013 H   0  0  0  0  0  0  0  0  0  0  0  0
  1  5  1  0
  5  6  1  0
  5  9  2  0
  1  2  1  0
  1  3  1  0
  1  4  1  0
  6  7  1  0
  6  8  1  0
 10 14  1  0
 14 15  2  0
 15 17  1  0
 17 18  2  0
 18 20  1  0
 20 14  1  0
 10 11  1  0
 10 12  1  0
 10 13  1  0
 15 16  1  0
 18 19  1  0
 20 21  1  0
M  END
>  <PDB_ID>  (22) 
pdb1dlc

>  <RESIDUE_NAME>  (22) 
ASN   HID

>  <FRAG_NAME>  (22) 
ACEM   MIMD

>  <FRAG_ATOM_NUM>  (22) 
fragi: 9  fragj: 12

>  <atom.prop.CHAIN_ID>  (22) 
A A A A A A A A A Z Z Z Z Z Z Z Z Z Z Z Z

>  <atom.prop.IS_HEAVY_ATOM>  (22) 
1 0 0 0 1 1 0 0 1 1 0 0 0 1 1 0 1 1 0 1 0

>  <DIFUSE_FUNC_ATOM>  (22) 
n/a

>  <FINAL_SINGLE_POINT_ENERGY>  (22) 
0

>  <NONCOV_INTER_ENERGY_QM>  (22) 
0

>  <FF_Energy>  (22) 
23.62

>  <QM_Energy>  (22) 
29.93

>  <source>  (22) 
ACEM_MIMD

>  <Index>  (22) 
2734

$$$$
ACEM-pdb1dqm-L-ASN-138:MIMD-pdb1dqm-H-HID-170
     RDKit          3D

 21 20  0  0  0  0  0  0  0  0999 V2000
   -0.4361   -5.1622   -2.4841 C   0  0  0  0  0  0  0  0  0  0  0  0
   -1.3956   -5.3898   -2.6174 H   0  0  0  0  0  0  0  0  0  0  0  0
    0.1082   -5.9917   -2.4092 H   0  0  0  0  0  0  0  0  0  0  0  0
   -0.0921   -4.6048   -3.3554 H   0  0  0  0  0  0  0  0  0  0  0  0
   -0.2987   -4.3727   -1.1927 C   0  0  0  0  0  0  0  0  0  0  0  0
   -1.2619   -3.4961   -0.9248 N   0  0  0  0  0  0  0  0  0  0  0  0
   -2.0282   -3.3918   -1.5628 H   0  0  0  0  0  0  0  0  0  0  0  0
   -1.2237   -2.9449   -0.0950 H   0  0  0  0  0  0  0  0  0  0  0  0
    0.6531   -4.5567   -0.4420 O   0  0  0  0  0  0  0  0  0  0  0  0
   -0.1695    2.6571   -0.0257 C   0  0  0  0  0  0  0  0  0  0  0  0
   -1.1499    2.8733   -0.0789 H   0  0  0  0  0  0  0  0  0  0  0  0
    0.2816    3.0100   -0.8519 H   0  0  0  0  0  0  0  0  0  0  0  0
    0.2541    3.1564    0.8458 H   0  0  0  0  0  0  0  0  0  0  0  0
   -0.0139    1.1685   -0.0019 C   0  0  0  0  0  0  0  0  0  0  0  0
    1.0930    0.3888    0.0000 C   0  0  0  0  0  0  0  0  0  0  0  0
    2.0384    0.7011    0.0010 H   0  0  0  0  0  0  0  0  0  0  0  0
    0.6684   -0.9194    0.0003 N   0  0  0  0  0  0  0  0  0  0  0  0
   -0.6545   -0.9414    0.0017 C   0  0  0  0  0  0  0  0  0  0  0  0
   -1.2214   -1.7603    0.0038 H   0  0  0  0  0  0  0  0  0  0  0  0
   -1.0930    0.3035   -0.0000 N   0  0  0  0  0  0  0  0  0  0  0  0
   -2.0514    0.5835    0.0004 H   0  0  0  0  0  0  0  0  0  0  0  0
  1  5  1  0
  5  6  1  0
  5  9  2  0
  1  2  1  0
  1  3  1  0
  1  4  1  0
  6  7  1  0
  6  8  1  0
 10 14  1  0
 14 15  2  0
 15 17  1  0
 17 18  2  0
 18 20  1  0
 20 14  1  0
 10 11  1  0
 10 12  1  0
 10 13  1  0
 15 16  1  0
 18 19  1  0
 20 21  1  0
M  END
>  <PDB_ID>  (23) 
pdb1dqm

>  <RESIDUE_NAME>  (23) 
ASN   HID

>  <FRAG_NAME>  (23) 
ACEM   MIMD

>  <FRAG_ATOM_NUM>  (23) 
fragi: 9  fragj: 12

>  <atom.prop.CHAIN_ID>  (23) 
A A A A A A A A A Z Z Z Z Z Z Z Z Z Z Z Z

>  <atom.prop.IS_HEAVY_ATOM>  (23) 
1 0 0 0 1 1 0 0 1 1 0 0 0 1 1 0 1 1 0 1 0

>  <DIFUSE_FUNC_ATOM>  (23) 
n/a

>  <FINAL_SINGLE_POINT_ENERGY>  (23) 
0

>  <NONCOV_INTER_ENERGY_QM>  (23) 
0

>  <FF_Energy>  (23) 
10.71

>  <QM_Energy>  (23) 
20.96

>  <source>  (23) 
ACEM_MIMD

>  <Index>  (23) 
2858

$$$$
ACEM-pdb2el7-B-GLN-9:MIMD-pdb2el7-B-HID-45
     RDKit          3D

 21 20  0  0  0  0  0  0  0  0999 V2000
   -6.1397   -0.8160   -0.5814 C   0  0  0  0  0  0  0  0  0  0  0  0
   -6.9606   -0.9914   -0.0370 H   0  0  0  0  0  0  0  0  0  0  0  0
   -5.9059   -1.6377   -1.1028 H   0  0  0  0  0  0  0  0  0  0  0  0
   -6.3541   -0.0100   -1.2832 H   0  0  0  0  0  0  0  0  0  0  0  0
   -4.9885   -0.5014    0.3682 C   0  0  0  0  0  0  0  0  0  0  0  0
   -3.8320   -0.1589   -0.1875 N   0  0  0  0  0  0  0  0  0  0  0  0
   -3.0291    0.0773    0.3826 H   0  0  0  0  0  0  0  0  0  0  0  0
   -3.7648   -0.1378   -1.2056 H   0  0  0  0  0  0  0  0  0  0  0  0
   -5.1450   -0.5588    1.5936 O   0  0  0  0  0  0  0  0  0  0  0  0
   -0.1885    2.6611    0.0067 C   0  0  0  0  0  0  0  0  0  0  0  0
   -0.3745    2.9513    0.9538 H   0  0  0  0  0  0  0  0  0  0  0  0
   -0.9929    2.8920   -0.5557 H   0  0  0  0  0  0  0  0  0  0  0  0
    0.6693    3.2201   -0.3672 H   0  0  0  0  0  0  0  0  0  0  0  0
   -0.0171    1.1699   -0.0050 C   0  0  0  0  0  0  0  0  0  0  0  0
    1.0918    0.3920    0.0000 C   0  0  0  0  0  0  0  0  0  0  0  0
    2.0364    0.7063    0.0020 H   0  0  0  0  0  0  0  0  0  0  0  0
    0.6689   -0.9162    0.0033 N   0  0  0  0  0  0  0  0  0  0  0  0
   -0.6519   -0.9454    0.0018 C   0  0  0  0  0  0  0  0  0  0  0  0
   -1.2163   -1.7645    0.0036 H   0  0  0  0  0  0  0  0  0  0  0  0
   -1.0918    0.2998   -0.0000 N   0  0  0  0  0  0  0  0  0  0  0  0
   -2.0532    0.5766    0.0012 H   0  0  0  0  0  0  0  0  0  0  0  0
  1  5  1  0
  5  6  1  0
  5  9  2  0
  1  2  1  0
  1  3  1  0
  1  4  1  0
  6  7  1  0
  6  8  1  0
 10 14  1  0
 14 15  2  0
 15 17  1  0
 17 18  2  0
 18 20  1  0
 20 14  1  0
 10 11  1  0
 10 12  1  0
 10 13  1  0
 15 16  1  0
 18 19  1  0
 20 21  1  0
M  END
>  <PDB_ID>  (24) 
pdb2el7

>  <RESIDUE_NAME>  (24) 
GLN   HID

>  <FRAG_NAME>  (24) 
ACEM   MIMD

>  <FRAG_ATOM_NUM>  (24) 
fragi: 9  fragj: 12

>  <atom.prop.CHAIN_ID>  (24) 
A A A A A A A A A Z Z Z Z Z Z Z Z Z Z Z Z

>  <atom.prop.IS_HEAVY_ATOM>  (24) 
1 0 0 0 1 1 0 0 1 1 0 0 0 1 1 0 1 1 0 1 0

>  <DIFUSE_FUNC_ATOM>  (24) 
n/a

>  <FINAL_SINGLE_POINT_ENERGY>  (24) 
0

>  <NONCOV_INTER_ENERGY_QM>  (24) 
0

>  <FF_Energy>  (24) 
9.49

>  <QM_Energy>  (24) 
17.76

>  <source>  (24) 
ACEM_MIMD

>  <Index>  (24) 
2951

$$$$
ACEM-pdb1e5x-A-ASN-132:MIMD-pdb1e5x-A-HID-153
     RDKit          3D

 21 20  0  0  0  0  0  0  0  0999 V2000
   -4.1564    2.9681   -1.6922 C   0  0  0  0  0  0  0  0  0  0  0  0
   -4.5503    3.3044   -2.5453 H   0  0  0  0  0  0  0  0  0  0  0  0
   -3.1663    3.0921   -1.7046 H   0  0  0  0  0  0  0  0  0  0  0  0
   -4.5624    3.5627   -0.8738 H   0  0  0  0  0  0  0  0  0  0  0  0
   -4.4593    1.4862   -1.5677 C   0  0  0  0  0  0  0  0  0  0  0  0
   -3.5552    0.7455   -0.9457 N   0  0  0  0  0  0  0  0  0  0  0  0
   -2.7253    1.1732   -0.5797 H   0  0  0  0  0  0  0  0  0  0  0  0
   -3.6958   -0.2377   -0.8366 H   0  0  0  0  0  0  0  0  0  0  0  0
   -5.4976    1.0158   -2.0257 O   0  0  0  0  0  0  0  0  0  0  0  0
   -0.1717    2.6539    0.0460 C   0  0  0  0  0  0  0  0  0  0  0  0
   -1.1386    2.8753   -0.1311 H   0  0  0  0  0  0  0  0  0  0  0  0
    0.3848    3.0506   -0.6946 H   0  0  0  0  0  0  0  0  0  0  0  0
    0.1271    3.1054    0.9921 H   0  0  0  0  0  0  0  0  0  0  0  0
   -0.0143    1.1676    0.0077 C   0  0  0  0  0  0  0  0  0  0  0  0
    1.0923    0.3864   -0.0000 C   0  0  0  0  0  0  0  0  0  0  0  0
    2.0386    0.6998   -0.0021 H   0  0  0  0  0  0  0  0  0  0  0  0
    0.6677   -0.9189   -0.0034 N   0  0  0  0  0  0  0  0  0  0  0  0
   -0.6534   -0.9417   -0.0043 C   0  0  0  0  0  0  0  0  0  0  0  0
   -1.2218   -1.7584   -0.0060 H   0  0  0  0  0  0  0  0  0  0  0  0
   -1.0923    0.3067   -0.0000 N   0  0  0  0  0  0  0  0  0  0  0  0
   -2.0514    0.5839   -0.0035 H   0  0  0  0  0  0  0  0  0  0  0  0
  1  5  1  0
  5  6  1  0
  5  9  2  0
  1  2  1  0
  1  3  1  0
  1  4  1  0
  6  7  1  0
  6  8  1  0
 10 14  1  0
 14 15  2  0
 15 17  1  0
 17 18  2  0
 18 20  1  0
 20 14  1  0
 10 11  1  0
 10 12  1  0
 10 13  1  0
 15 16  1  0
 18 19  1  0
 20 21  1  0
M  END
>  <PDB_ID>  (25) 
pdb1e5x

>  <RESIDUE_NAME>  (25) 
ASN   HID

>  <FRAG_NAME>  (25) 
ACEM   MIMD

>  <FRAG_ATOM_NUM>  (25) 
fragi: 9  fragj: 12

>  <atom.prop.CHAIN_ID>  (25) 
A A A A A A A A A Z Z Z Z Z Z Z Z Z Z Z Z

>  <atom.prop.IS_HEAVY_ATOM>  (25) 
1 0 0 0 1 1 0 0 1 1 0 0 0 1 1 0 1 1 0 1 0

>  <DIFUSE_FUNC_ATOM>  (25) 
n/a

>  <FINAL_SINGLE_POINT_ENERGY>  (25) 
0

>  <NONCOV_INTER_ENERGY_QM>  (25) 
0

>  <FF_Energy>  (25) 
14.33

>  <QM_Energy>  (25) 
27.21

>  <source>  (25) 
ACEM_MIMD

>  <Index>  (25) 
3111

$$$$
ACEM-pdb2exh-A-GLN-293:MIMD-pdb2exh-A-HID-264
     RDKit          3D

 21 20  0  0  0  0  0  0  0  0999 V2000
   -2.8271   -2.0854    2.1388 C   0  0  0  0  0  0  0  0  0  0  0  0
   -2.5452   -1.4669    1.4015 H   0  0  0  0  0  0  0  0  0  0  0  0
   -2.2933   -1.8777    2.9621 H   0  0  0  0  0  0  0  0  0  0  0  0
   -3.8786   -1.8998    2.3578 H   0  0  0  0  0  0  0  0  0  0  0  0
   -2.5174   -3.5227    1.7088 C   0  0  0  0  0  0  0  0  0  0  0  0
   -1.4918   -3.6709    0.8800 N   0  0  0  0  0  0  0  0  0  0  0  0
   -1.2163   -4.5976    0.5609 H   0  0  0  0  0  0  0  0  0  0  0  0
   -0.9857   -2.8462    0.5682 H   0  0  0  0  0  0  0  0  0  0  0  0
   -3.1800   -4.4837    2.1187 O   0  0  0  0  0  0  0  0  0  0  0  0
   -0.1764    2.6554    0.0128 C   0  0  0  0  0  0  0  0  0  0  0  0
    0.6810    3.0645    0.3416 H   0  0  0  0  0  0  0  0  0  0  0  0
   -0.9117    2.8897    0.6560 H   0  0  0  0  0  0  0  0  0  0  0  0
   -0.4161    3.0793   -0.9623 H   0  0  0  0  0  0  0  0  0  0  0  0
   -0.0165    1.1670   -0.0016 C   0  0  0  0  0  0  0  0  0  0  0  0
    1.0914    0.3894   -0.0000 C   0  0  0  0  0  0  0  0  0  0  0  0
    2.0366    0.7035    0.0036 H   0  0  0  0  0  0  0  0  0  0  0  0
    0.6688   -0.9184   -0.0014 N   0  0  0  0  0  0  0  0  0  0  0  0
   -0.6524   -0.9421    0.0030 C   0  0  0  0  0  0  0  0  0  0  0  0
   -1.2195   -1.7609    0.0092 H   0  0  0  0  0  0  0  0  0  0  0  0
   -1.0914    0.3041    0.0000 N   0  0  0  0  0  0  0  0  0  0  0  0
   -2.0520    0.5805   -0.0014 H   0  0  0  0  0  0  0  0  0  0  0  0
  1  5  1  0
  5  6  1  0
  5  9  2  0
  1  2  1  0
  1  3  1  0
  1  4  1  0
  6  7  1  0
  6  8  1  0
 10 14  1  0
 14 15  2  0
 15 17  1  0
 17 18  2  0
 18 20  1  0
 20 14  1  0
 10 11  1  0
 10 12  1  0
 10 13  1  0
 15 16  1  0
 18 19  1  0
 20 21  1  0
M  END
>  <PDB_ID>  (26) 
pdb2exh

>  <RESIDUE_NAME>  (26) 
GLN   HID

>  <FRAG_NAME>  (26) 
ACEM   MIMD

>  <FRAG_ATOM_NUM>  (26) 
fragi: 9  fragj: 12

>  <atom.prop.CHAIN_ID>  (26) 
A A A A A A A A A Z Z Z Z Z Z Z Z Z Z Z Z

>  <atom.prop.IS_HEAVY_ATOM>  (26) 
1 0 0 0 1 1 0 0 1 1 0 0 0 1 1 0 1 1 0 1 0

>  <DIFUSE_FUNC_ATOM>  (26) 
n/a

>  <FINAL_SINGLE_POINT_ENERGY>  (26) 
0

>  <NONCOV_INTER_ENERGY_QM>  (26) 
0

>  <FF_Energy>  (26) 
2.33

>  <QM_Energy>  (26) 
11.68

>  <source>  (26) 
ACEM_MIMD

>  <Index>  (26) 
3120

$$$$
ACEM-pdb2f1k-D-ASN-233:MIMD-pdb2f1k-D-HID-179
     RDKit          3D

 21 20  0  0  0  0  0  0  0  0999 V2000
   -4.1350   -0.9136   -1.6210 C   0  0  0  0  0  0  0  0  0  0  0  0
   -3.5983   -1.7495   -1.6746 H   0  0  0  0  0  0  0  0  0  0  0  0
   -3.5697   -0.1248   -1.8439 H   0  0  0  0  0  0  0  0  0  0  0  0
   -4.9252   -0.9775   -2.3691 H   0  0  0  0  0  0  0  0  0  0  0  0
   -4.6819   -0.7608   -0.2404 C   0  0  0  0  0  0  0  0  0  0  0  0
   -3.8933   -0.1589    0.6510 N   0  0  0  0  0  0  0  0  0  0  0  0
   -2.9900    0.1670    0.3725 H   0  0  0  0  0  0  0  0  0  0  0  0
   -4.2047   -0.0343    1.5899 H   0  0  0  0  0  0  0  0  0  0  0  0
   -5.8348   -1.1707    0.0336 O   0  0  0  0  0  0  0  0  0  0  0  0
   -0.1460    2.6560   -0.0254 C   0  0  0  0  0  0  0  0  0  0  0  0
   -0.9245    2.9075    0.5539 H   0  0  0  0  0  0  0  0  0  0  0  0
   -0.3307    2.9490   -0.9668 H   0  0  0  0  0  0  0  0  0  0  0  0
    0.7446    3.1705    0.3355 H   0  0  0  0  0  0  0  0  0  0  0  0
   -0.0052    1.1678   -0.0116 C   0  0  0  0  0  0  0  0  0  0  0  0
    1.0916    0.3828   -0.0000 C   0  0  0  0  0  0  0  0  0  0  0  0
    2.0424    0.6884    0.0026 H   0  0  0  0  0  0  0  0  0  0  0  0
    0.6637   -0.9245    0.0084 N   0  0  0  0  0  0  0  0  0  0  0  0
   -0.6585   -0.9386    0.0032 C   0  0  0  0  0  0  0  0  0  0  0  0
   -1.2317   -1.7528    0.0035 H   0  0  0  0  0  0  0  0  0  0  0  0
   -1.0916    0.3125    0.0000 N   0  0  0  0  0  0  0  0  0  0  0  0
   -2.0476    0.5963    0.0041 H   0  0  0  0  0  0  0  0  0  0  0  0
  1  5  1  0
  5  6  1  0
  5  9  2  0
  1  2  1  0
  1  3  1  0
  1  4  1  0
  6  7  1  0
  6  8  1  0
 10 14  1  0
 14 15  2  0
 15 17  1  0
 17 18  2  0
 18 20  1  0
 20 14  1  0
 10 11  1  0
 10 12  1  0
 10 13  1  0
 15 16  1  0
 18 19  1  0
 20 21  1  0
M  END
>  <PDB_ID>  (27) 
pdb2f1k

>  <RESIDUE_NAME>  (27) 
ASN   HID

>  <FRAG_NAME>  (27) 
ACEM   MIMD

>  <FRAG_ATOM_NUM>  (27) 
fragi: 9  fragj: 12

>  <atom.prop.CHAIN_ID>  (27) 
A A A A A A A A A Z Z Z Z Z Z Z Z Z Z Z Z

>  <atom.prop.IS_HEAVY_ATOM>  (27) 
1 0 0 0 1 1 0 0 1 1 0 0 0 1 1 0 1 1 0 1 0

>  <DIFUSE_FUNC_ATOM>  (27) 
n/a

>  <FINAL_SINGLE_POINT_ENERGY>  (27) 
0

>  <NONCOV_INTER_ENERGY_QM>  (27) 
0

>  <FF_Energy>  (27) 
9.67

>  <QM_Energy>  (27) 
19.46

>  <source>  (27) 
ACEM_MIMD

>  <Index>  (27) 
3198

$$$$
ACEM-pdb2f84-A-ASN-258:MIMD-pdb2f84-A-HID-282
     RDKit          3D

 21 20  0  0  0  0  0  0  0  0999 V2000
   -1.6936   -3.5656   -3.0206 C   0  0  0  0  0  0  0  0  0  0  0  0
   -2.0063   -4.1931   -3.7187 H   0  0  0  0  0  0  0  0  0  0  0  0
   -0.7785   -3.2410   -3.2148 H   0  0  0  0  0  0  0  0  0  0  0  0
   -2.3684   -2.7099   -2.9942 H   0  0  0  0  0  0  0  0  0  0  0  0
   -1.6473   -4.3428   -1.6656 C   0  0  0  0  0  0  0  0  0  0  0  0
   -1.2880   -3.6341   -0.6031 N   0  0  0  0  0  0  0  0  0  0  0  0
   -1.0730   -2.6613   -0.6982 H   0  0  0  0  0  0  0  0  0  0  0  0
   -1.2323   -4.0696    0.2959 H   0  0  0  0  0  0  0  0  0  0  0  0
   -1.9029   -5.5552   -1.5930 O   0  0  0  0  0  0  0  0  0  0  0  0
   -0.1741    2.6620    0.0459 C   0  0  0  0  0  0  0  0  0  0  0  0
   -1.0599    2.8903   -0.3609 H   0  0  0  0  0  0  0  0  0  0  0  0
    0.5569    3.0590   -0.5118 H   0  0  0  0  0  0  0  0  0  0  0  0
   -0.1250    3.0924    1.0462 H   0  0  0  0  0  0  0  0  0  0  0  0
   -0.0186    1.1692    0.0416 C   0  0  0  0  0  0  0  0  0  0  0  0
    1.0901    0.3887    0.0000 C   0  0  0  0  0  0  0  0  0  0  0  0
    2.0359    0.7050   -0.0142 H   0  0  0  0  0  0  0  0  0  0  0  0
    0.6700   -0.9193   -0.0175 N   0  0  0  0  0  0  0  0  0  0  0  0
   -0.6514   -0.9432   -0.0241 C   0  0  0  0  0  0  0  0  0  0  0  0
   -1.2190   -1.7608   -0.0415 H   0  0  0  0  0  0  0  0  0  0  0  0
   -1.0901    0.3045   -0.0000 N   0  0  0  0  0  0  0  0  0  0  0  0
   -2.0524    0.5799   -0.0105 H   0  0  0  0  0  0  0  0  0  0  0  0
  1  5  1  0
  5  6  1  0
  5  9  2  0
  1  2  1  0
  1  3  1  0
  1  4  1  0
  6  7  1  0
  6  8  1  0
 10 14  1  0
 14 15  2  0
 15 17  1  0
 17 18  2  0
 18 20  1  0
 20 14  1  0
 10 11  1  0
 10 12  1  0
 10 13  1  0
 15 16  1  0
 18 19  1  0
 20 21  1  0
M  END
>  <PDB_ID>  (28) 
pdb2f84

>  <RESIDUE_NAME>  (28) 
ASN   HID

>  <FRAG_NAME>  (28) 
ACEM   MIMD

>  <FRAG_ATOM_NUM>  (28) 
fragi: 9  fragj: 12

>  <atom.prop.CHAIN_ID>  (28) 
A A A A A A A A A Z Z Z Z Z Z Z Z Z Z Z Z

>  <atom.prop.IS_HEAVY_ATOM>  (28) 
1 0 0 0 1 1 0 0 1 1 0 0 0 1 1 0 1 1 0 1 0

>  <DIFUSE_FUNC_ATOM>  (28) 
n/a

>  <FINAL_SINGLE_POINT_ENERGY>  (28) 
0

>  <NONCOV_INTER_ENERGY_QM>  (28) 
0

>  <FF_Energy>  (28) 
6.71

>  <QM_Energy>  (28) 
18.48

>  <source>  (28) 
ACEM_MIMD

>  <Index>  (28) 
3353

$$$$
ACEM-pdb1ei6-C-ASN-381:MIMD-pdb1ei6-C-HID-230
     RDKit          3D

 21 20  0  0  0  0  0  0  0  0999 V2000
   -4.2248   -0.0499   -1.7801 C   0  0  0  0  0  0  0  0  0  0  0  0
   -3.3123   -0.4293   -1.6157 H   0  0  0  0  0  0  0  0  0  0  0  0
   -4.1433    0.7745   -2.3439 H   0  0  0  0  0  0  0  0  0  0  0  0
   -4.8161   -0.7863   -2.3242 H   0  0  0  0  0  0  0  0  0  0  0  0
   -4.8231    0.3470   -0.4397 C   0  0  0  0  0  0  0  0  0  0  0  0
   -4.0209    1.0308    0.3957 N   0  0  0  0  0  0  0  0  0  0  0  0
   -3.0909    1.2497    0.1058 H   0  0  0  0  0  0  0  0  0  0  0  0
   -4.3569    1.3114    1.2868 H   0  0  0  0  0  0  0  0  0  0  0  0
   -5.9883    0.0588   -0.1706 O   0  0  0  0  0  0  0  0  0  0  0  0
   -0.1113    2.6369   -0.0137 C   0  0  0  0  0  0  0  0  0  0  0  0
   -0.8068    2.8902   -0.6927 H   0  0  0  0  0  0  0  0  0  0  0  0
    0.7705    3.0297   -0.2905 H   0  0  0  0  0  0  0  0  0  0  0  0
   -0.3942    3.0483    0.9552 H   0  0  0  0  0  0  0  0  0  0  0  0
    0.0161    1.1549    0.0035 C   0  0  0  0  0  0  0  0  0  0  0  0
    1.1143    0.3654   -0.0000 C   0  0  0  0  0  0  0  0  0  0  0  0
    2.0610    0.6571   -0.0007 H   0  0  0  0  0  0  0  0  0  0  0  0
    0.6594   -0.9403   -0.0020 N   0  0  0  0  0  0  0  0  0  0  0  0
   -0.6755   -0.9191   -0.0016 C   0  0  0  0  0  0  0  0  0  0  0  0
   -1.2598   -1.7328   -0.0012 H   0  0  0  0  0  0  0  0  0  0  0  0
   -1.1143    0.3391    0.0000 N   0  0  0  0  0  0  0  0  0  0  0  0
   -2.0446    0.6380   -0.0020 H   0  0  0  0  0  0  0  0  0  0  0  0
  1  5  1  0
  5  6  1  0
  5  9  2  0
  1  2  1  0
  1  3  1  0
  1  4  1  0
  6  7  1  0
  6  8  1  0
 10 14  1  0
 14 15  2  0
 15 17  1  0
 17 18  2  0
 18 20  1  0
 20 14  1  0
 10 11  1  0
 10 12  1  0
 10 13  1  0
 15 16  1  0
 18 19  1  0
 20 21  1  0
M  END
>  <PDB_ID>  (29) 
pdb1ei6

>  <RESIDUE_NAME>  (29) 
ASN   HID

>  <FRAG_NAME>  (29) 
ACEM   MIMD

>  <FRAG_ATOM_NUM>  (29) 
fragi: 9  fragj: 12

>  <atom.prop.CHAIN_ID>  (29) 
A A A A A A A A A Z Z Z Z Z Z Z Z Z Z Z Z

>  <atom.prop.IS_HEAVY_ATOM>  (29) 
1 0 0 0 1 1 0 0 1 1 0 0 0 1 1 0 1 1 0 1 0

>  <DIFUSE_FUNC_ATOM>  (29) 
n/a

>  <FINAL_SINGLE_POINT_ENERGY>  (29) 
0

>  <NONCOV_INTER_ENERGY_QM>  (29) 
0

>  <FF_Energy>  (29) 
6.88

>  <QM_Energy>  (29) 
13.38

>  <source>  (29) 
ACEM_MIMD

>  <Index>  (29) 
3401

$$$$
ACEM-pdb1el6-B-GLN-199:MIMD-pdb1el6-B-HID-214
     RDKit          3D

 21 20  0  0  0  0  0  0  0  0999 V2000
   -3.0481   -4.2323    0.0948 C   0  0  0  0  0  0  0  0  0  0  0  0
   -2.7900   -4.9303    0.7624 H   0  0  0  0  0  0  0  0  0  0  0  0
   -3.9310   -4.4691   -0.3109 H   0  0  0  0  0  0  0  0  0  0  0  0
   -3.1471   -3.2772    0.6105 H   0  0  0  0  0  0  0  0  0  0  0  0
   -2.0034   -4.2002   -1.0013 C   0  0  0  0  0  0  0  0  0  0  0  0
   -0.9400   -3.4341   -0.7849 N   0  0  0  0  0  0  0  0  0  0  0  0
   -0.1901   -3.3738   -1.4691 H   0  0  0  0  0  0  0  0  0  0  0  0
   -0.8853   -2.9044    0.0839 H   0  0  0  0  0  0  0  0  0  0  0  0
   -2.1588   -4.8426   -2.0391 O   0  0  0  0  0  0  0  0  0  0  0  0
   -0.1724    2.6559   -0.0077 C   0  0  0  0  0  0  0  0  0  0  0  0
   -1.1461    2.8695   -0.1491 H   0  0  0  0  0  0  0  0  0  0  0  0
    0.3501    3.0240   -0.7856 H   0  0  0  0  0  0  0  0  0  0  0  0
    0.1687    3.1378    0.9086 H   0  0  0  0  0  0  0  0  0  0  0  0
   -0.0151    1.1676    0.0008 C   0  0  0  0  0  0  0  0  0  0  0  0
    1.0919    0.3880    0.0000 C   0  0  0  0  0  0  0  0  0  0  0  0
    2.0378    0.7012    0.0000 H   0  0  0  0  0  0  0  0  0  0  0  0
    0.6683   -0.9193   -0.0008 N   0  0  0  0  0  0  0  0  0  0  0  0
   -0.6532   -0.9412    0.0001 C   0  0  0  0  0  0  0  0  0  0  0  0
   -1.2213   -1.7591    0.0029 H   0  0  0  0  0  0  0  0  0  0  0  0
   -1.0919    0.3050    0.0000 N   0  0  0  0  0  0  0  0  0  0  0  0
   -2.0520    0.5826   -0.0022 H   0  0  0  0  0  0  0  0  0  0  0  0
  1  5  1  0
  5  6  1  0
  5  9  2  0
  1  2  1  0
  1  3  1  0
  1  4  1  0
  6  7  1  0
  6  8  1  0
 10 14  1  0
 14 15  2  0
 15 17  1  0
 17 18  2  0
 18 20  1  0
 20 14  1  0
 10 11  1  0
 10 12  1  0
 10 13  1  0
 15 16  1  0
 18 19  1  0
 20 21  1  0
M  END
>  <PDB_ID>  (30) 
pdb1el6

>  <RESIDUE_NAME>  (30) 
GLN   HID

>  <FRAG_NAME>  (30) 
ACEM   MIMD

>  <FRAG_ATOM_NUM>  (30) 
fragi: 9  fragj: 12

>  <atom.prop.CHAIN_ID>  (30) 
A A A A A A A A A Z Z Z Z Z Z Z Z Z Z Z Z

>  <atom.prop.IS_HEAVY_ATOM>  (30) 
1 0 0 0 1 1 0 0 1 1 0 0 0 1 1 0 1 1 0 1 0

>  <DIFUSE_FUNC_ATOM>  (30) 
n/a

>  <FINAL_SINGLE_POINT_ENERGY>  (30) 
0

>  <NONCOV_INTER_ENERGY_QM>  (30) 
0

>  <FF_Energy>  (30) 
10.78

>  <QM_Energy>  (30) 
19.17

>  <source>  (30) 
ACEM_MIMD

>  <Index>  (30) 
3443

$$$$
ACEM-pdb1el6-C-GLN-199:MIMD-pdb1el6-C-HID-214
     RDKit          3D

 21 20  0  0  0  0  0  0  0  0999 V2000
   -3.1468   -4.2314    0.4056 C   0  0  0  0  0  0  0  0  0  0  0  0
   -3.0870   -5.0373    0.9966 H   0  0  0  0  0  0  0  0  0  0  0  0
   -4.0597   -4.1876   -0.0037 H   0  0  0  0  0  0  0  0  0  0  0  0
   -3.0004   -3.3424    1.0192 H   0  0  0  0  0  0  0  0  0  0  0  0
   -2.1219   -4.3671   -0.7055 C   0  0  0  0  0  0  0  0  0  0  0  0
   -1.1422   -3.4719   -0.7168 N   0  0  0  0  0  0  0  0  0  0  0  0
   -0.4103   -3.5067   -1.4232 H   0  0  0  0  0  0  0  0  0  0  0  0
   -1.1326   -2.7429   -0.0050 H   0  0  0  0  0  0  0  0  0  0  0  0
   -2.2139   -5.2623   -1.5466 O   0  0  0  0  0  0  0  0  0  0  0  0
   -0.1842    2.6547    0.0106 C   0  0  0  0  0  0  0  0  0  0  0  0
   -1.1679    2.8643    0.0220 H   0  0  0  0  0  0  0  0  0  0  0  0
    0.2106    3.0220   -0.8380 H   0  0  0  0  0  0  0  0  0  0  0  0
    0.2926    3.1398    0.8623 H   0  0  0  0  0  0  0  0  0  0  0  0
   -0.0194    1.1681    0.0005 C   0  0  0  0  0  0  0  0  0  0  0  0
    1.0909    0.3912    0.0000 C   0  0  0  0  0  0  0  0  0  0  0  0
    2.0348    0.7072    0.0011 H   0  0  0  0  0  0  0  0  0  0  0  0
    0.6699   -0.9175    0.0001 N   0  0  0  0  0  0  0  0  0  0  0  0
   -0.6505   -0.9443   -0.0006 C   0  0  0  0  0  0  0  0  0  0  0  0
   -1.2169   -1.7627    0.0005 H   0  0  0  0  0  0  0  0  0  0  0  0
   -1.0909    0.3026    0.0000 N   0  0  0  0  0  0  0  0  0  0  0  0
   -2.0535    0.5764   -0.0013 H   0  0  0  0  0  0  0  0  0  0  0  0
  1  5  1  0
  5  6  1  0
  5  9  2  0
  1  2  1  0
  1  3  1  0
  1  4  1  0
  6  7  1  0
  6  8  1  0
 10 14  1  0
 14 15  2  0
 15 17  1  0
 17 18  2  0
 18 20  1  0
 20 14  1  0
 10 11  1  0
 10 12  1  0
 10 13  1  0
 15 16  1  0
 18 19  1  0
 20 21  1  0
M  END
>  <PDB_ID>  (31) 
pdb1el6

>  <RESIDUE_NAME>  (31) 
GLN   HID

>  <FRAG_NAME>  (31) 
ACEM   MIMD

>  <FRAG_ATOM_NUM>  (31) 
fragi: 9  fragj: 12

>  <atom.prop.CHAIN_ID>  (31) 
A A A A A A A A A Z Z Z Z Z Z Z Z Z Z Z Z

>  <atom.prop.IS_HEAVY_ATOM>  (31) 
1 0 0 0 1 1 0 0 1 1 0 0 0 1 1 0 1 1 0 1 0

>  <DIFUSE_FUNC_ATOM>  (31) 
n/a

>  <FINAL_SINGLE_POINT_ENERGY>  (31) 
0

>  <NONCOV_INTER_ENERGY_QM>  (31) 
0

>  <FF_Energy>  (31) 
13.83

>  <QM_Energy>  (31) 
31.06

>  <source>  (31) 
ACEM_MIMD

>  <Index>  (31) 
3444

$$$$
ACEM-pdb2fmy-B-ASN-1047:MIMD-pdb2fmy-B-HID-1082
     RDKit          3D

 21 20  0  0  0  0  0  0  0  0999 V2000
   -4.9049    3.1409    1.9186 C   0  0  0  0  0  0  0  0  0  0  0  0
   -4.5403    3.9413    2.3857 H   0  0  0  0  0  0  0  0  0  0  0  0
   -5.5660    2.6745    2.5003 H   0  0  0  0  0  0  0  0  0  0  0  0
   -5.4154    3.4721    1.0143 H   0  0  0  0  0  0  0  0  0  0  0  0
   -3.7476    2.1794    1.6373 C   0  0  0  0  0  0  0  0  0  0  0  0
   -3.7437    1.6065    0.4421 N   0  0  0  0  0  0  0  0  0  0  0  0
   -4.4655    1.8162   -0.2201 H   0  0  0  0  0  0  0  0  0  0  0  0
   -3.0173    0.9634    0.1955 H   0  0  0  0  0  0  0  0  0  0  0  0
   -2.8699    1.9606    2.4763 O   0  0  0  0  0  0  0  0  0  0  0  0
   -0.1842    2.6658   -0.0126 C   0  0  0  0  0  0  0  0  0  0  0  0
    0.4344    3.0462    0.6880 H   0  0  0  0  0  0  0  0  0  0  0  0
   -1.1329    2.8758    0.2628 H   0  0  0  0  0  0  0  0  0  0  0  0
    0.0180    3.1651   -0.9601 H   0  0  0  0  0  0  0  0  0  0  0  0
   -0.0175    1.1702   -0.0291 C   0  0  0  0  0  0  0  0  0  0  0  0
    1.0905    0.3889   -0.0000 C   0  0  0  0  0  0  0  0  0  0  0  0
    2.0363    0.7031    0.0099 H   0  0  0  0  0  0  0  0  0  0  0  0
    0.6691   -0.9227    0.0145 N   0  0  0  0  0  0  0  0  0  0  0  0
   -0.6516   -0.9417    0.0146 C   0  0  0  0  0  0  0  0  0  0  0  0
   -1.2216   -1.7595    0.0247 H   0  0  0  0  0  0  0  0  0  0  0  0
   -1.0905    0.3053    0.0000 N   0  0  0  0  0  0  0  0  0  0  0  0
   -2.0527    0.5815    0.0080 H   0  0  0  0  0  0  0  0  0  0  0  0
  1  5  1  0
  5  6  1  0
  5  9  2  0
  1  2  1  0
  1  3  1  0
  1  4  1  0
  6  7  1  0
  6  8  1  0
 10 14  1  0
 14 15  2  0
 15 17  1  0
 17 18  2  0
 18 20  1  0
 20 14  1  0
 10 11  1  0
 10 12  1  0
 10 13  1  0
 15 16  1  0
 18 19  1  0
 20 21  1  0
M  END
>  <PDB_ID>  (32) 
pdb2fmy

>  <RESIDUE_NAME>  (32) 
ASN   HID

>  <FRAG_NAME>  (32) 
ACEM   MIMD

>  <FRAG_ATOM_NUM>  (32) 
fragi: 9  fragj: 12

>  <atom.prop.CHAIN_ID>  (32) 
A A A A A A A A A Z Z Z Z Z Z Z Z Z Z Z Z

>  <atom.prop.IS_HEAVY_ATOM>  (32) 
1 0 0 0 1 1 0 0 1 1 0 0 0 1 1 0 1 1 0 1 0

>  <DIFUSE_FUNC_ATOM>  (32) 
n/a

>  <FINAL_SINGLE_POINT_ENERGY>  (32) 
0

>  <NONCOV_INTER_ENERGY_QM>  (32) 
0

>  <FF_Energy>  (32) 
8.24

>  <QM_Energy>  (32) 
21.26

>  <source>  (32) 
ACEM_MIMD

>  <Index>  (32) 
3653

$$$$
ACEM-pdb2fmy-D-ASN-3047:MIMD-pdb2fmy-D-HID-3082
     RDKit          3D

 21 20  0  0  0  0  0  0  0  0999 V2000
   -5.0083    3.3239    1.7067 C   0  0  0  0  0  0  0  0  0  0  0  0
   -4.6713    4.2122    2.0028 H   0  0  0  0  0  0  0  0  0  0  0  0
   -5.6437    2.9545    2.3771 H   0  0  0  0  0  0  0  0  0  0  0  0
   -5.5389    3.4533    0.7634 H   0  0  0  0  0  0  0  0  0  0  0  0
   -3.8216    2.3717    1.5897 C   0  0  0  0  0  0  0  0  0  0  0  0
   -3.8908    1.4653    0.6240 N   0  0  0  0  0  0  0  0  0  0  0  0
   -4.6874    1.4364    0.0180 H   0  0  0  0  0  0  0  0  0  0  0  0
   -3.1468    0.8072    0.4979 H   0  0  0  0  0  0  0  0  0  0  0  0
   -2.8546    2.4571    2.3507 O   0  0  0  0  0  0  0  0  0  0  0  0
   -0.1745    2.6657   -0.0199 C   0  0  0  0  0  0  0  0  0  0  0  0
    0.4456    3.0471    0.6793 H   0  0  0  0  0  0  0  0  0  0  0  0
   -1.1216    2.8817    0.2513 H   0  0  0  0  0  0  0  0  0  0  0  0
    0.0323    3.1567   -0.9707 H   0  0  0  0  0  0  0  0  0  0  0  0
   -0.0147    1.1703   -0.0289 C   0  0  0  0  0  0  0  0  0  0  0  0
    1.0915    0.3878   -0.0000 C   0  0  0  0  0  0  0  0  0  0  0  0
    2.0376    0.7004    0.0091 H   0  0  0  0  0  0  0  0  0  0  0  0
    0.6684   -0.9229    0.0166 N   0  0  0  0  0  0  0  0  0  0  0  0
   -0.6537   -0.9412    0.0123 C   0  0  0  0  0  0  0  0  0  0  0  0
   -1.2229   -1.7589    0.0186 H   0  0  0  0  0  0  0  0  0  0  0  0
   -1.0915    0.3060   -0.0000 N   0  0  0  0  0  0  0  0  0  0  0  0
   -2.0511    0.5843    0.0094 H   0  0  0  0  0  0  0  0  0  0  0  0
  1  5  1  0
  5  6  1  0
  5  9  2  0
  1  2  1  0
  1  3  1  0
  1  4  1  0
  6  7  1  0
  6  8  1  0
 10 14  1  0
 14 15  2  0
 15 17  1  0
 17 18  2  0
 18 20  1  0
 20 14  1  0
 10 11  1  0
 10 12  1  0
 10 13  1  0
 15 16  1  0
 18 19  1  0
 20 21  1  0
M  END
>  <PDB_ID>  (33) 
pdb2fmy

>  <RESIDUE_NAME>  (33) 
ASN   HID

>  <FRAG_NAME>  (33) 
ACEM   MIMD

>  <FRAG_ATOM_NUM>  (33) 
fragi: 9  fragj: 12

>  <atom.prop.CHAIN_ID>  (33) 
A A A A A A A A A Z Z Z Z Z Z Z Z Z Z Z Z

>  <atom.prop.IS_HEAVY_ATOM>  (33) 
1 0 0 0 1 1 0 0 1 1 0 0 0 1 1 0 1 1 0 1 0

>  <DIFUSE_FUNC_ATOM>  (33) 
n/a

>  <FINAL_SINGLE_POINT_ENERGY>  (33) 
0

>  <NONCOV_INTER_ENERGY_QM>  (33) 
0

>  <FF_Energy>  (33) 
4.95

>  <QM_Energy>  (33) 
12.09

>  <source>  (33) 
ACEM_MIMD

>  <Index>  (33) 
3655

$$$$
ACEM-pdb2fyx-B-ASN-101:MIMD-pdb2fyx-B-HID-23
     RDKit          3D

 21 20  0  0  0  0  0  0  0  0999 V2000
   -5.1907    2.5997   -1.0286 C   0  0  0  0  0  0  0  0  0  0  0  0
   -6.0538    2.2914   -1.4164 H   0  0  0  0  0  0  0  0  0  0  0  0
   -4.6482    3.0654   -1.7209 H   0  0  0  0  0  0  0  0  0  0  0  0
   -5.4127    3.3150   -0.2367 H   0  0  0  0  0  0  0  0  0  0  0  0
   -4.4253    1.4078   -0.5236 C   0  0  0  0  0  0  0  0  0  0  0  0
   -3.2845    1.6455    0.1459 N   0  0  0  0  0  0  0  0  0  0  0  0
   -3.0003    2.5960    0.2834 H   0  0  0  0  0  0  0  0  0  0  0  0
   -2.7440    0.8934    0.4927 H   0  0  0  0  0  0  0  0  0  0  0  0
   -4.8634    0.2767   -0.7226 O   0  0  0  0  0  0  0  0  0  0  0  0
   -0.1781    2.6804    0.0318 C   0  0  0  0  0  0  0  0  0  0  0  0
   -0.4461    2.9502    0.9616 H   0  0  0  0  0  0  0  0  0  0  0  0
   -0.9190    2.9255   -0.6010 H   0  0  0  0  0  0  0  0  0  0  0  0
    0.7181    3.2335   -0.2491 H   0  0  0  0  0  0  0  0  0  0  0  0
   -0.0159    1.1739    0.0069 C   0  0  0  0  0  0  0  0  0  0  0  0
    1.0961    0.3902   -0.0000 C   0  0  0  0  0  0  0  0  0  0  0  0
    2.0390    0.7041   -0.0038 H   0  0  0  0  0  0  0  0  0  0  0  0
    0.6708   -0.9216    0.0007 N   0  0  0  0  0  0  0  0  0  0  0  0
   -0.6549   -0.9455   -0.0076 C   0  0  0  0  0  0  0  0  0  0  0  0
   -1.2198   -1.7636   -0.0160 H   0  0  0  0  0  0  0  0  0  0  0  0
   -1.0961    0.3030   -0.0000 N   0  0  0  0  0  0  0  0  0  0  0  0
   -2.0547    0.5809    0.0004 H   0  0  0  0  0  0  0  0  0  0  0  0
  1  5  1  0
  5  6  1  0
  5  9  2  0
  1  2  1  0
  1  3  1  0
  1  4  1  0
  6  7  1  0
  6  8  1  0
 10 14  1  0
 14 15  2  0
 15 17  1  0
 17 18  2  0
 18 20  1  0
 20 14  1  0
 10 11  1  0
 10 12  1  0
 10 13  1  0
 15 16  1  0
 18 19  1  0
 20 21  1  0
M  END
>  <PDB_ID>  (34) 
pdb2fyx

>  <RESIDUE_NAME>  (34) 
ASN   HID

>  <FRAG_NAME>  (34) 
ACEM   MIMD

>  <FRAG_ATOM_NUM>  (34) 
fragi: 9  fragj: 12

>  <atom.prop.CHAIN_ID>  (34) 
A A A A A A A A A Z Z Z Z Z Z Z Z Z Z Z Z

>  <atom.prop.IS_HEAVY_ATOM>  (34) 
1 0 0 0 1 1 0 0 1 1 0 0 0 1 1 0 1 1 0 1 0

>  <DIFUSE_FUNC_ATOM>  (34) 
n/a

>  <FINAL_SINGLE_POINT_ENERGY>  (34) 
0

>  <NONCOV_INTER_ENERGY_QM>  (34) 
0

>  <FF_Energy>  (34) 
20.7

>  <QM_Energy>  (34) 
42.51

>  <source>  (34) 
ACEM_MIMD

>  <Index>  (34) 
3875

$$$$
ACEM-pdb2g47-B-GLN-813:MIMD-pdb2g47-B-HID-885
     RDKit          3D

 21 20  0  0  0  0  0  0  0  0999 V2000
   -3.9996    2.2256    1.3647 C   0  0  0  0  0  0  0  0  0  0  0  0
   -3.7845    3.1227    0.9702 H   0  0  0  0  0  0  0  0  0  0  0  0
   -3.1456    1.7181    1.5032 H   0  0  0  0  0  0  0  0  0  0  0  0
   -4.4662    2.3819    2.3373 H   0  0  0  0  0  0  0  0  0  0  0  0
   -4.8670    1.4579    0.3780 C   0  0  0  0  0  0  0  0  0  0  0  0
   -4.2552    0.5134   -0.3354 N   0  0  0  0  0  0  0  0  0  0  0  0
   -4.7731   -0.0490   -1.0026 H   0  0  0  0  0  0  0  0  0  0  0  0
   -3.2575    0.3662   -0.1986 H   0  0  0  0  0  0  0  0  0  0  0  0
   -6.0622    1.7258    0.2401 O   0  0  0  0  0  0  0  0  0  0  0  0
   -0.1800    2.6538   -0.0234 C   0  0  0  0  0  0  0  0  0  0  0  0
    0.7184    3.0736    0.1363 H   0  0  0  0  0  0  0  0  0  0  0  0
   -0.7955    2.9170    0.7257 H   0  0  0  0  0  0  0  0  0  0  0  0
   -0.5856    3.0292   -0.9628 H   0  0  0  0  0  0  0  0  0  0  0  0
   -0.0172    1.1675    0.0006 C   0  0  0  0  0  0  0  0  0  0  0  0
    1.0916    0.3890    0.0000 C   0  0  0  0  0  0  0  0  0  0  0  0
    2.0361    0.7041    0.0007 H   0  0  0  0  0  0  0  0  0  0  0  0
    0.6698   -0.9184   -0.0004 N   0  0  0  0  0  0  0  0  0  0  0  0
   -0.6526   -0.9420   -0.0002 C   0  0  0  0  0  0  0  0  0  0  0  0
   -1.2186   -1.7607    0.0007 H   0  0  0  0  0  0  0  0  0  0  0  0
   -1.0916    0.3040   -0.0000 N   0  0  0  0  0  0  0  0  0  0  0  0
   -2.0529    0.5801   -0.0007 H   0  0  0  0  0  0  0  0  0  0  0  0
  1  5  1  0
  5  6  1  0
  5  9  2  0
  1  2  1  0
  1  3  1  0
  1  4  1  0
  6  7  1  0
  6  8  1  0
 10 14  1  0
 14 15  2  0
 15 17  1  0
 17 18  2  0
 18 20  1  0
 20 14  1  0
 10 11  1  0
 10 12  1  0
 10 13  1  0
 15 16  1  0
 18 19  1  0
 20 21  1  0
M  END
>  <PDB_ID>  (35) 
pdb2g47

>  <RESIDUE_NAME>  (35) 
GLN   HID

>  <FRAG_NAME>  (35) 
ACEM   MIMD

>  <FRAG_ATOM_NUM>  (35) 
fragi: 9  fragj: 12

>  <atom.prop.CHAIN_ID>  (35) 
A A A A A A A A A Z Z Z Z Z Z Z Z Z Z Z Z

>  <atom.prop.IS_HEAVY_ATOM>  (35) 
1 0 0 0 1 1 0 0 1 1 0 0 0 1 1 0 1 1 0 1 0

>  <DIFUSE_FUNC_ATOM>  (35) 
n/a

>  <FINAL_SINGLE_POINT_ENERGY>  (35) 
0

>  <NONCOV_INTER_ENERGY_QM>  (35) 
0

>  <FF_Energy>  (35) 
6.07

>  <QM_Energy>  (35) 
11.95

>  <source>  (35) 
ACEM_MIMD

>  <Index>  (35) 
3950

$$$$
ACEM-pdb2g5c-D-ASN-266:MIMD-pdb2g5c-D-HID-214
     RDKit          3D

 21 20  0  0  0  0  0  0  0  0999 V2000
   -4.3191   -1.0698   -2.0005 C   0  0  0  0  0  0  0  0  0  0  0  0
   -3.7595   -1.8623   -2.2189 H   0  0  0  0  0  0  0  0  0  0  0  0
   -3.8015   -0.2322   -2.1391 H   0  0  0  0  0  0  0  0  0  0  0  0
   -5.1760   -1.0586   -2.6741 H   0  0  0  0  0  0  0  0  0  0  0  0
   -4.7221   -1.1523   -0.5263 C   0  0  0  0  0  0  0  0  0  0  0  0
   -3.9007   -0.5771    0.3417 N   0  0  0  0  0  0  0  0  0  0  0  0
   -3.0721   -0.1168    0.0164 H   0  0  0  0  0  0  0  0  0  0  0  0
   -4.1048   -0.6018    1.3199 H   0  0  0  0  0  0  0  0  0  0  0  0
   -5.7710   -1.7136   -0.1805 O   0  0  0  0  0  0  0  0  0  0  0  0
   -0.1715    2.6592    0.0639 C   0  0  0  0  0  0  0  0  0  0  0  0
   -0.8698    2.8782    0.7494 H   0  0  0  0  0  0  0  0  0  0  0  0
   -0.4875    2.9738   -0.8348 H   0  0  0  0  0  0  0  0  0  0  0  0
    0.7567    3.1709    0.3179 H   0  0  0  0  0  0  0  0  0  0  0  0
   -0.0190    1.1680    0.0103 C   0  0  0  0  0  0  0  0  0  0  0  0
    1.0907    0.3884    0.0000 C   0  0  0  0  0  0  0  0  0  0  0  0
    2.0360    0.7052   -0.0019 H   0  0  0  0  0  0  0  0  0  0  0  0
    0.6703   -0.9189   -0.0055 N   0  0  0  0  0  0  0  0  0  0  0  0
   -0.6512   -0.9417   -0.0049 C   0  0  0  0  0  0  0  0  0  0  0  0
   -1.2191   -1.7603   -0.0065 H   0  0  0  0  0  0  0  0  0  0  0  0
   -1.0907    0.3042   -0.0000 N   0  0  0  0  0  0  0  0  0  0  0  0
   -2.0528    0.5794   -0.0043 H   0  0  0  0  0  0  0  0  0  0  0  0
  1  5  1  0
  5  6  1  0
  5  9  2  0
  1  2  1  0
  1  3  1  0
  1  4  1  0
  6  7  1  0
  6  8  1  0
 10 14  1  0
 14 15  2  0
 15 17  1  0
 17 18  2  0
 18 20  1  0
 20 14  1  0
 10 11  1  0
 10 12  1  0
 10 13  1  0
 15 16  1  0
 18 19  1  0
 20 21  1  0
M  END
>  <PDB_ID>  (36) 
pdb2g5c

>  <RESIDUE_NAME>  (36) 
ASN   HID

>  <FRAG_NAME>  (36) 
ACEM   MIMD

>  <FRAG_ATOM_NUM>  (36) 
fragi: 9  fragj: 12

>  <atom.prop.CHAIN_ID>  (36) 
A A A A A A A A A Z Z Z Z Z Z Z Z Z Z Z Z

>  <atom.prop.IS_HEAVY_ATOM>  (36) 
1 0 0 0 1 1 0 0 1 1 0 0 0 1 1 0 1 1 0 1 0

>  <DIFUSE_FUNC_ATOM>  (36) 
n/a

>  <FINAL_SINGLE_POINT_ENERGY>  (36) 
0

>  <NONCOV_INTER_ENERGY_QM>  (36) 
0

>  <FF_Energy>  (36) 
7.52

>  <QM_Energy>  (36) 
13.28

>  <source>  (36) 
ACEM_MIMD

>  <Index>  (36) 
3981

$$$$
ACEM-pdb2go7-D-GLN-178:MIMD-pdb2go7-D-HID-191
     RDKit          3D

 21 20  0  0  0  0  0  0  0  0999 V2000
   -2.8595   -4.1388   -1.4913 C   0  0  0  0  0  0  0  0  0  0  0  0
   -3.4548   -4.8974   -1.7505 H   0  0  0  0  0  0  0  0  0  0  0  0
   -2.0878   -4.0859   -2.1244 H   0  0  0  0  0  0  0  0  0  0  0  0
   -3.4266   -3.2095   -1.5473 H   0  0  0  0  0  0  0  0  0  0  0  0
   -2.3199   -4.4077   -0.0950 C   0  0  0  0  0  0  0  0  0  0  0  0
   -1.3788   -3.5950    0.3184 N   0  0  0  0  0  0  0  0  0  0  0  0
   -0.9683   -3.6984    1.2565 H   0  0  0  0  0  0  0  0  0  0  0  0
   -1.0479   -2.8525   -0.2955 H   0  0  0  0  0  0  0  0  0  0  0  0
   -2.7599   -5.3333    0.6065 O   0  0  0  0  0  0  0  0  0  0  0  0
   -0.1736    2.6600   -0.0067 C   0  0  0  0  0  0  0  0  0  0  0  0
   -0.8444    2.9092   -0.7168 H   0  0  0  0  0  0  0  0  0  0  0  0
    0.7136    3.0698   -0.2550 H   0  0  0  0  0  0  0  0  0  0  0  0
   -0.4989    3.0662    0.9510 H   0  0  0  0  0  0  0  0  0  0  0  0
   -0.0161    1.1691   -0.0167 C   0  0  0  0  0  0  0  0  0  0  0  0
    1.0901    0.3858    0.0000 C   0  0  0  0  0  0  0  0  0  0  0  0
    2.0365    0.6994    0.0050 H   0  0  0  0  0  0  0  0  0  0  0  0
    0.6679   -0.9221    0.0080 N   0  0  0  0  0  0  0  0  0  0  0  0
   -0.6518   -0.9409    0.0087 C   0  0  0  0  0  0  0  0  0  0  0  0
   -1.2228   -1.7579    0.0163 H   0  0  0  0  0  0  0  0  0  0  0  0
   -1.0901    0.3081   -0.0000 N   0  0  0  0  0  0  0  0  0  0  0  0
   -2.0511    0.5837    0.0050 H   0  0  0  0  0  0  0  0  0  0  0  0
  1  5  1  0
  5  6  1  0
  5  9  2  0
  1  2  1  0
  1  3  1  0
  1  4  1  0
  6  7  1  0
  6  8  1  0
 10 14  1  0
 14 15  2  0
 15 17  1  0
 17 18  2  0
 18 20  1  0
 20 14  1  0
 10 11  1  0
 10 12  1  0
 10 13  1  0
 15 16  1  0
 18 19  1  0
 20 21  1  0
M  END
>  <PDB_ID>  (37) 
pdb2go7

>  <RESIDUE_NAME>  (37) 
GLN   HID

>  <FRAG_NAME>  (37) 
ACEM   MIMD

>  <FRAG_ATOM_NUM>  (37) 
fragi: 9  fragj: 12

>  <atom.prop.CHAIN_ID>  (37) 
A A A A A A A A A Z Z Z Z Z Z Z Z Z Z Z Z

>  <atom.prop.IS_HEAVY_ATOM>  (37) 
1 0 0 0 1 1 0 0 1 1 0 0 0 1 1 0 1 1 0 1 0

>  <DIFUSE_FUNC_ATOM>  (37) 
n/a

>  <FINAL_SINGLE_POINT_ENERGY>  (37) 
0

>  <NONCOV_INTER_ENERGY_QM>  (37) 
0

>  <FF_Energy>  (37) 
9.38

>  <QM_Energy>  (37) 
18.55

>  <source>  (37) 
ACEM_MIMD

>  <Index>  (37) 
4312

$$$$
ACEM-pdb2gom-B-GLN-161:MIMD-pdb2gom-B-HID-125
     RDKit          3D

 21 20  0  0  0  0  0  0  0  0999 V2000
   -2.9859   -4.5524   -0.8775 C   0  0  0  0  0  0  0  0  0  0  0  0
   -3.1304   -5.0658   -0.0265 H   0  0  0  0  0  0  0  0  0  0  0  0
   -3.5545   -4.9592   -1.6000 H   0  0  0  0  0  0  0  0  0  0  0  0
   -3.3056   -3.5221   -0.7214 H   0  0  0  0  0  0  0  0  0  0  0  0
   -1.5167   -4.7037   -1.2826 C   0  0  0  0  0  0  0  0  0  0  0  0
   -0.6923   -3.7154   -0.9619 N   0  0  0  0  0  0  0  0  0  0  0  0
    0.2887   -3.7585   -1.1872 H   0  0  0  0  0  0  0  0  0  0  0  0
   -1.0743   -2.8995   -0.4769 H   0  0  0  0  0  0  0  0  0  0  0  0
   -1.1415   -5.7070   -1.8936 O   0  0  0  0  0  0  0  0  0  0  0  0
   -0.1171    2.6616   -0.0105 C   0  0  0  0  0  0  0  0  0  0  0  0
    0.1878    3.0169    0.8866 H   0  0  0  0  0  0  0  0  0  0  0  0
   -1.0930    2.9045   -0.1187 H   0  0  0  0  0  0  0  0  0  0  0  0
    0.4547    3.1569   -0.7953 H   0  0  0  0  0  0  0  0  0  0  0  0
   -0.0082    1.1660    0.0166 C   0  0  0  0  0  0  0  0  0  0  0  0
    1.0895    0.3810   -0.0000 C   0  0  0  0  0  0  0  0  0  0  0  0
    2.0404    0.6912   -0.0058 H   0  0  0  0  0  0  0  0  0  0  0  0
    0.6638   -0.9219   -0.0066 N   0  0  0  0  0  0  0  0  0  0  0  0
   -0.6556   -0.9380   -0.0100 C   0  0  0  0  0  0  0  0  0  0  0  0
   -1.2287   -1.7520   -0.0164 H   0  0  0  0  0  0  0  0  0  0  0  0
   -1.0895    0.3130    0.0000 N   0  0  0  0  0  0  0  0  0  0  0  0
   -2.0478    0.5931   -0.0049 H   0  0  0  0  0  0  0  0  0  0  0  0
  1  5  1  0
  5  6  1  0
  5  9  2  0
  1  2  1  0
  1  3  1  0
  1  4  1  0
  6  7  1  0
  6  8  1  0
 10 14  1  0
 14 15  2  0
 15 17  1  0
 17 18  2  0
 18 20  1  0
 20 14  1  0
 10 11  1  0
 10 12  1  0
 10 13  1  0
 15 16  1  0
 18 19  1  0
 20 21  1  0
M  END
>  <PDB_ID>  (38) 
pdb2gom

>  <RESIDUE_NAME>  (38) 
GLN   HID

>  <FRAG_NAME>  (38) 
ACEM   MIMD

>  <FRAG_ATOM_NUM>  (38) 
fragi: 9  fragj: 12

>  <atom.prop.CHAIN_ID>  (38) 
A A A A A A A A A Z Z Z Z Z Z Z Z Z Z Z Z

>  <atom.prop.IS_HEAVY_ATOM>  (38) 
1 0 0 0 1 1 0 0 1 1 0 0 0 1 1 0 1 1 0 1 0

>  <DIFUSE_FUNC_ATOM>  (38) 
n/a

>  <FINAL_SINGLE_POINT_ENERGY>  (38) 
0

>  <NONCOV_INTER_ENERGY_QM>  (38) 
0

>  <FF_Energy>  (38) 
2.02

>  <QM_Energy>  (38) 
9.96

>  <source>  (38) 
ACEM_MIMD

>  <Index>  (38) 
4332

$$$$
ACEM-pdb2gse-B-ASN-432:MIMD-pdb2gse-B-HID-425
     RDKit          3D

 21 20  0  0  0  0  0  0  0  0999 V2000
   -3.9599   -0.5778   -2.6027 C   0  0  0  0  0  0  0  0  0  0  0  0
   -2.9727   -0.6891   -2.4677 H   0  0  0  0  0  0  0  0  0  0  0  0
   -4.1347   -0.3355   -3.5603 H   0  0  0  0  0  0  0  0  0  0  0  0
   -4.4485   -1.5287   -2.3904 H   0  0  0  0  0  0  0  0  0  0  0  0
   -4.4380    0.5531   -1.7282 C   0  0  0  0  0  0  0  0  0  0  0  0
   -3.5132    1.2136   -1.0798 N   0  0  0  0  0  0  0  0  0  0  0  0
   -2.5435    0.9723   -1.1759 H   0  0  0  0  0  0  0  0  0  0  0  0
   -3.7640    1.9784   -0.4729 H   0  0  0  0  0  0  0  0  0  0  0  0
   -5.6544    0.7872   -1.5838 O   0  0  0  0  0  0  0  0  0  0  0  0
   -0.2023    2.6562    0.0202 C   0  0  0  0  0  0  0  0  0  0  0  0
   -0.6917    2.9051    0.8696 H   0  0  0  0  0  0  0  0  0  0  0  0
   -0.7900    2.9161   -0.7608 H   0  0  0  0  0  0  0  0  0  0  0  0
    0.7159    3.2413   -0.0320 H   0  0  0  0  0  0  0  0  0  0  0  0
   -0.0186    1.1675   -0.0010 C   0  0  0  0  0  0  0  0  0  0  0  0
    1.0893    0.3915    0.0000 C   0  0  0  0  0  0  0  0  0  0  0  0
    2.0348    0.7077    0.0018 H   0  0  0  0  0  0  0  0  0  0  0  0
    0.6694   -0.9162   -0.0008 N   0  0  0  0  0  0  0  0  0  0  0  0
   -0.6509   -0.9420    0.0019 C   0  0  0  0  0  0  0  0  0  0  0  0
   -1.2157   -1.7628    0.0062 H   0  0  0  0  0  0  0  0  0  0  0  0
   -1.0893    0.2993   -0.0000 N   0  0  0  0  0  0  0  0  0  0  0  0
   -2.0525    0.5760   -0.0010 H   0  0  0  0  0  0  0  0  0  0  0  0
  1  5  1  0
  5  6  1  0
  5  9  2  0
  1  2  1  0
  1  3  1  0
  1  4  1  0
  6  7  1  0
  6  8  1  0
 10 14  1  0
 14 15  2  0
 15 17  1  0
 17 18  2  0
 18 20  1  0
 20 14  1  0
 10 11  1  0
 10 12  1  0
 10 13  1  0
 15 16  1  0
 18 19  1  0
 20 21  1  0
M  END
>  <PDB_ID>  (39) 
pdb2gse

>  <RESIDUE_NAME>  (39) 
ASN   HID

>  <FRAG_NAME>  (39) 
ACEM   MIMD

>  <FRAG_ATOM_NUM>  (39) 
fragi: 9  fragj: 12

>  <atom.prop.CHAIN_ID>  (39) 
A A A A A A A A A Z Z Z Z Z Z Z Z Z Z Z Z

>  <atom.prop.IS_HEAVY_ATOM>  (39) 
1 0 0 0 1 1 0 0 1 1 0 0 0 1 1 0 1 1 0 1 0

>  <DIFUSE_FUNC_ATOM>  (39) 
n/a

>  <FINAL_SINGLE_POINT_ENERGY>  (39) 
0

>  <NONCOV_INTER_ENERGY_QM>  (39) 
0

>  <FF_Energy>  (39) 
4.93

>  <QM_Energy>  (39) 
10.08

>  <source>  (39) 
ACEM_MIMD

>  <Index>  (39) 
4423

$$$$
ACEM-pdb2gvh-C-GLN-227:MIMD-pdb2gvh-C-HID-247
     RDKit          3D

 21 20  0  0  0  0  0  0  0  0999 V2000
   -1.7977   -1.9833   -3.5762 C   0  0  0  0  0  0  0  0  0  0  0  0
   -1.9002   -2.1229   -4.5583 H   0  0  0  0  0  0  0  0  0  0  0  0
   -0.9076   -1.5771   -3.3812 H   0  0  0  0  0  0  0  0  0  0  0  0
   -2.5722   -1.2922   -3.2437 H   0  0  0  0  0  0  0  0  0  0  0  0
   -1.8897   -3.3223   -2.8791 C   0  0  0  0  0  0  0  0  0  0  0  0
   -1.5921   -3.3364   -1.5899 N   0  0  0  0  0  0  0  0  0  0  0  0
   -1.6448   -4.1992   -1.0476 H   0  0  0  0  0  0  0  0  0  0  0  0
   -1.3067   -2.4685   -1.1380 H   0  0  0  0  0  0  0  0  0  0  0  0
   -2.2262   -4.3396   -3.4979 O   0  0  0  0  0  0  0  0  0  0  0  0
   -0.1830    2.6438    0.0052 C   0  0  0  0  0  0  0  0  0  0  0  0
    0.4904    3.0431    0.6367 H   0  0  0  0  0  0  0  0  0  0  0  0
   -1.1052    2.8618    0.3419 H   0  0  0  0  0  0  0  0  0  0  0  0
   -0.0499    3.0785   -0.9854 H   0  0  0  0  0  0  0  0  0  0  0  0
   -0.0185    1.1656    0.0184 C   0  0  0  0  0  0  0  0  0  0  0  0
    1.0921    0.3886    0.0000 C   0  0  0  0  0  0  0  0  0  0  0  0
    2.0359    0.7047   -0.0044 H   0  0  0  0  0  0  0  0  0  0  0  0
    0.6703   -0.9186   -0.0109 N   0  0  0  0  0  0  0  0  0  0  0  0
   -0.6518   -0.9414   -0.0074 C   0  0  0  0  0  0  0  0  0  0  0  0
   -1.2189   -1.7598   -0.0089 H   0  0  0  0  0  0  0  0  0  0  0  0
   -1.0921    0.3058    0.0000 N   0  0  0  0  0  0  0  0  0  0  0  0
   -2.0533    0.5809   -0.0071 H   0  0  0  0  0  0  0  0  0  0  0  0
  1  5  1  0
  5  6  1  0
  5  9  2  0
  1  2  1  0
  1  3  1  0
  1  4  1  0
  6  7  1  0
  6  8  1  0
 10 14  1  0
 14 15  2  0
 15 17  1  0
 17 18  2  0
 18 20  1  0
 20 14  1  0
 10 11  1  0
 10 12  1  0
 10 13  1  0
 15 16  1  0
 18 19  1  0
 20 21  1  0
M  END
>  <PDB_ID>  (40) 
pdb2gvh

>  <RESIDUE_NAME>  (40) 
GLN   HID

>  <FRAG_NAME>  (40) 
ACEM   MIMD

>  <FRAG_ATOM_NUM>  (40) 
fragi: 9  fragj: 12

>  <atom.prop.CHAIN_ID>  (40) 
A A A A A A A A A Z Z Z Z Z Z Z Z Z Z Z Z

>  <atom.prop.IS_HEAVY_ATOM>  (40) 
1 0 0 0 1 1 0 0 1 1 0 0 0 1 1 0 1 1 0 1 0

>  <DIFUSE_FUNC_ATOM>  (40) 
n/a

>  <FINAL_SINGLE_POINT_ENERGY>  (40) 
0

>  <NONCOV_INTER_ENERGY_QM>  (40) 
0

>  <FF_Energy>  (40) 
1.03

>  <QM_Energy>  (40) 
7.51

>  <source>  (40) 
ACEM_MIMD

>  <Index>  (40) 
4508

$$$$
ACEM-pdb1g6w-A-GLN-219:MIMD-pdb1g6w-A-HID-223
     RDKit          3D

 21 20  0  0  0  0  0  0  0  0999 V2000
   -3.3011    2.1022    3.1273 C   0  0  0  0  0  0  0  0  0  0  0  0
   -2.4404    1.6635    2.8563 H   0  0  0  0  0  0  0  0  0  0  0  0
   -3.7322    1.5536    3.8491 H   0  0  0  0  0  0  0  0  0  0  0  0
   -3.0785    3.0917    3.5264 H   0  0  0  0  0  0  0  0  0  0  0  0
   -4.2341    2.1152    1.9132 C   0  0  0  0  0  0  0  0  0  0  0  0
   -3.8282    1.4437    0.8429 N   0  0  0  0  0  0  0  0  0  0  0  0
   -4.4008    1.3984    0.0099 H   0  0  0  0  0  0  0  0  0  0  0  0
   -2.9247    0.9727    0.8730 H   0  0  0  0  0  0  0  0  0  0  0  0
   -5.2997    2.7373    1.9412 O   0  0  0  0  0  0  0  0  0  0  0  0
   -0.1774    2.6523    0.0791 C   0  0  0  0  0  0  0  0  0  0  0  0
    0.4697    3.0100    0.7653 H   0  0  0  0  0  0  0  0  0  0  0  0
   -1.1134    2.8556    0.3966 H   0  0  0  0  0  0  0  0  0  0  0  0
   -0.0087    3.1704   -0.8649 H   0  0  0  0  0  0  0  0  0  0  0  0
   -0.0165    1.1674    0.0079 C   0  0  0  0  0  0  0  0  0  0  0  0
    1.0904    0.3892   -0.0000 C   0  0  0  0  0  0  0  0  0  0  0  0
    2.0360    0.7040   -0.0018 H   0  0  0  0  0  0  0  0  0  0  0  0
    0.6683   -0.9181   -0.0037 N   0  0  0  0  0  0  0  0  0  0  0  0
   -0.6518   -0.9424   -0.0042 C   0  0  0  0  0  0  0  0  0  0  0  0
   -1.2194   -1.7610   -0.0057 H   0  0  0  0  0  0  0  0  0  0  0  0
   -1.0904    0.3039    0.0000 N   0  0  0  0  0  0  0  0  0  0  0  0
   -2.0518    0.5808   -0.0034 H   0  0  0  0  0  0  0  0  0  0  0  0
  1  5  1  0
  5  6  1  0
  5  9  2  0
  1  2  1  0
  1  3  1  0
  1  4  1  0
  6  7  1  0
  6  8  1  0
 10 14  1  0
 14 15  2  0
 15 17  1  0
 17 18  2  0
 18 20  1  0
 20 14  1  0
 10 11  1  0
 10 12  1  0
 10 13  1  0
 15 16  1  0
 18 19  1  0
 20 21  1  0
M  END
>  <PDB_ID>  (41) 
pdb1g6w

>  <RESIDUE_NAME>  (41) 
GLN   HID

>  <FRAG_NAME>  (41) 
ACEM   MIMD

>  <FRAG_ATOM_NUM>  (41) 
fragi: 9  fragj: 12

>  <atom.prop.CHAIN_ID>  (41) 
A A A A A A A A A Z Z Z Z Z Z Z Z Z Z Z Z

>  <atom.prop.IS_HEAVY_ATOM>  (41) 
1 0 0 0 1 1 0 0 1 1 0 0 0 1 1 0 1 1 0 1 0

>  <DIFUSE_FUNC_ATOM>  (41) 
n/a

>  <FINAL_SINGLE_POINT_ENERGY>  (41) 
0

>  <NONCOV_INTER_ENERGY_QM>  (41) 
0

>  <FF_Energy>  (41) 
4.5

>  <QM_Energy>  (41) 
9.63

>  <source>  (41) 
ACEM_MIMD

>  <Index>  (41) 
4640

$$$$
ACEM-pdb1g6w-C-GLN-219:MIMD-pdb1g6w-C-HID-223
     RDKit          3D

 21 20  0  0  0  0  0  0  0  0999 V2000
   -3.7899    2.1255    2.0797 C   0  0  0  0  0  0  0  0  0  0  0  0
   -2.8934    1.6805    2.0479 H   0  0  0  0  0  0  0  0  0  0  0  0
   -4.4189    1.5632    2.6186 H   0  0  0  0  0  0  0  0  0  0  0  0
   -3.6770    3.0873    2.5799 H   0  0  0  0  0  0  0  0  0  0  0  0
   -4.3300    2.2312    0.6537 C   0  0  0  0  0  0  0  0  0  0  0  0
   -3.6720    1.5523   -0.2866 N   0  0  0  0  0  0  0  0  0  0  0  0
   -3.9821    1.5669   -1.2479 H   0  0  0  0  0  0  0  0  0  0  0  0
   -2.8478    1.0190   -0.0151 H   0  0  0  0  0  0  0  0  0  0  0  0
   -5.3234    2.9272    0.4029 O   0  0  0  0  0  0  0  0  0  0  0  0
   -0.1808    2.6540    0.0523 C   0  0  0  0  0  0  0  0  0  0  0  0
    0.1486    2.9806    0.9472 H   0  0  0  0  0  0  0  0  0  0  0  0
   -1.1637    2.8668   -0.0172 H   0  0  0  0  0  0  0  0  0  0  0  0
    0.3501    3.1902   -0.7343 H   0  0  0  0  0  0  0  0  0  0  0  0
   -0.0170    1.1682    0.0032 C   0  0  0  0  0  0  0  0  0  0  0  0
    1.0911    0.3898   -0.0000 C   0  0  0  0  0  0  0  0  0  0  0  0
    2.0366    0.7041   -0.0006 H   0  0  0  0  0  0  0  0  0  0  0  0
    0.6688   -0.9182   -0.0009 N   0  0  0  0  0  0  0  0  0  0  0  0
   -0.6517   -0.9431   -0.0023 C   0  0  0  0  0  0  0  0  0  0  0  0
   -1.2192   -1.7617   -0.0034 H   0  0  0  0  0  0  0  0  0  0  0  0
   -1.0911    0.3033   -0.0000 N   0  0  0  0  0  0  0  0  0  0  0  0
   -2.0525    0.5790   -0.0010 H   0  0  0  0  0  0  0  0  0  0  0  0
  1  5  1  0
  5  6  1  0
  5  9  2  0
  1  2  1  0
  1  3  1  0
  1  4  1  0
  6  7  1  0
  6  8  1  0
 10 14  1  0
 14 15  2  0
 15 17  1  0
 17 18  2  0
 18 20  1  0
 20 14  1  0
 10 11  1  0
 10 12  1  0
 10 13  1  0
 15 16  1  0
 18 19  1  0
 20 21  1  0
M  END
>  <PDB_ID>  (42) 
pdb1g6w

>  <RESIDUE_NAME>  (42) 
GLN   HID

>  <FRAG_NAME>  (42) 
ACEM   MIMD

>  <FRAG_ATOM_NUM>  (42) 
fragi: 9  fragj: 12

>  <atom.prop.CHAIN_ID>  (42) 
A A A A A A A A A Z Z Z Z Z Z Z Z Z Z Z Z

>  <atom.prop.IS_HEAVY_ATOM>  (42) 
1 0 0 0 1 1 0 0 1 1 0 0 0 1 1 0 1 1 0 1 0

>  <DIFUSE_FUNC_ATOM>  (42) 
n/a

>  <FINAL_SINGLE_POINT_ENERGY>  (42) 
0

>  <NONCOV_INTER_ENERGY_QM>  (42) 
0

>  <FF_Energy>  (42) 
12.74

>  <QM_Energy>  (42) 
33.92

>  <source>  (42) 
ACEM_MIMD

>  <Index>  (42) 
4643

$$$$
ACEM-pdb2h66-C-ASN-142:MIMD-pdb2h66-D-HID-138
     RDKit          3D

 21 20  0  0  0  0  0  0  0  0999 V2000
   -5.4546    1.9957    1.2526 C   0  0  0  0  0  0  0  0  0  0  0  0
   -6.2794    1.5950    1.6416 H   0  0  0  0  0  0  0  0  0  0  0  0
   -5.6942    2.6786    0.5678 H   0  0  0  0  0  0  0  0  0  0  0  0
   -4.8910    2.4811    2.0494 H   0  0  0  0  0  0  0  0  0  0  0  0
   -4.6592    0.9031    0.5836 C   0  0  0  0  0  0  0  0  0  0  0  0
   -3.3645    1.1134    0.4132 N   0  0  0  0  0  0  0  0  0  0  0  0
   -2.9575    1.9753    0.7347 H   0  0  0  0  0  0  0  0  0  0  0  0
   -2.7926    0.4272   -0.0278 H   0  0  0  0  0  0  0  0  0  0  0  0
   -5.2188   -0.1315    0.2120 O   0  0  0  0  0  0  0  0  0  0  0  0
   -0.1675    2.6561   -0.0268 C   0  0  0  0  0  0  0  0  0  0  0  0
   -1.0215    2.8857   -0.5227 H   0  0  0  0  0  0  0  0  0  0  0  0
    0.6018    3.0541   -0.5538 H   0  0  0  0  0  0  0  0  0  0  0  0
   -0.1951    3.1059    0.9657 H   0  0  0  0  0  0  0  0  0  0  0  0
   -0.0129    1.1678   -0.0445 C   0  0  0  0  0  0  0  0  0  0  0  0
    1.0936    0.3885   -0.0000 C   0  0  0  0  0  0  0  0  0  0  0  0
    2.0390    0.7009    0.0164 H   0  0  0  0  0  0  0  0  0  0  0  0
    0.6680   -0.9194    0.0198 N   0  0  0  0  0  0  0  0  0  0  0  0
   -0.6551   -0.9417    0.0247 C   0  0  0  0  0  0  0  0  0  0  0  0
   -1.2214   -1.7604    0.0454 H   0  0  0  0  0  0  0  0  0  0  0  0
   -1.0936    0.3049    0.0000 N   0  0  0  0  0  0  0  0  0  0  0  0
   -2.0515    0.5850    0.0100 H   0  0  0  0  0  0  0  0  0  0  0  0
  1  5  1  0
  5  6  1  0
  5  9  2  0
  1  2  1  0
  1  3  1  0
  1  4  1  0
  6  7  1  0
  6  8  1  0
 10 14  1  0
 14 15  2  0
 15 17  1  0
 17 18  2  0
 18 20  1  0
 20 14  1  0
 10 11  1  0
 10 12  1  0
 10 13  1  0
 15 16  1  0
 18 19  1  0
 20 21  1  0
M  END
>  <PDB_ID>  (43) 
pdb2h66

>  <RESIDUE_NAME>  (43) 
ASN   HID

>  <FRAG_NAME>  (43) 
ACEM   MIMD

>  <FRAG_ATOM_NUM>  (43) 
fragi: 9  fragj: 12

>  <atom.prop.CHAIN_ID>  (43) 
A A A A A A A A A Z Z Z Z Z Z Z Z Z Z Z Z

>  <atom.prop.IS_HEAVY_ATOM>  (43) 
1 0 0 0 1 1 0 0 1 1 0 0 0 1 1 0 1 1 0 1 0

>  <DIFUSE_FUNC_ATOM>  (43) 
n/a

>  <FINAL_SINGLE_POINT_ENERGY>  (43) 
0

>  <NONCOV_INTER_ENERGY_QM>  (43) 
0

>  <FF_Energy>  (43) 
40.73

>  <QM_Energy>  (43) 
74.37

>  <source>  (43) 
ACEM_MIMD

>  <Index>  (43) 
4698

$$$$
ACEM-pdb2h66-E-ASN-142:MIMD-pdb2h66-F-HID-138
     RDKit          3D

 21 20  0  0  0  0  0  0  0  0999 V2000
   -5.6864    1.4039    1.5927 C   0  0  0  0  0  0  0  0  0  0  0  0
   -6.2926    0.8033    2.1092 H   0  0  0  0  0  0  0  0  0  0  0  0
   -6.2248    2.0157    1.0174 H   0  0  0  0  0  0  0  0  0  0  0  0
   -5.1164    2.0079    2.2987 H   0  0  0  0  0  0  0  0  0  0  0  0
   -4.7990    0.5798    0.7334 C   0  0  0  0  0  0  0  0  0  0  0  0
   -3.6414    1.1124    0.3958 N   0  0  0  0  0  0  0  0  0  0  0  0
   -3.3916    2.0277    0.7204 H   0  0  0  0  0  0  0  0  0  0  0  0
   -3.0024    0.6062   -0.1873 H   0  0  0  0  0  0  0  0  0  0  0  0
   -5.1609   -0.5451    0.3577 O   0  0  0  0  0  0  0  0  0  0  0  0
   -0.1771    2.6618   -0.0515 C   0  0  0  0  0  0  0  0  0  0  0  0
   -0.9498    2.8767   -0.6574 H   0  0  0  0  0  0  0  0  0  0  0  0
    0.6593    3.0561   -0.4458 H   0  0  0  0  0  0  0  0  0  0  0  0
   -0.3553    3.1139    0.9242 H   0  0  0  0  0  0  0  0  0  0  0  0
   -0.0164    1.1691   -0.0064 C   0  0  0  0  0  0  0  0  0  0  0  0
    1.0902    0.3927    0.0000 C   0  0  0  0  0  0  0  0  0  0  0  0
    2.0357    0.7060    0.0061 H   0  0  0  0  0  0  0  0  0  0  0  0
    0.6682   -0.9166   -0.0025 N   0  0  0  0  0  0  0  0  0  0  0  0
   -0.6518   -0.9454    0.0089 C   0  0  0  0  0  0  0  0  0  0  0  0
   -1.2161   -1.7641    0.0225 H   0  0  0  0  0  0  0  0  0  0  0  0
   -1.0902    0.3002   -0.0000 N   0  0  0  0  0  0  0  0  0  0  0  0
   -2.0518    0.5770   -0.0022 H   0  0  0  0  0  0  0  0  0  0  0  0
  1  5  1  0
  5  6  1  0
  5  9  2  0
  1  2  1  0
  1  3  1  0
  1  4  1  0
  6  7  1  0
  6  8  1  0
 10 14  1  0
 14 15  2  0
 15 17  1  0
 17 18  2  0
 18 20  1  0
 20 14  1  0
 10 11  1  0
 10 12  1  0
 10 13  1  0
 15 16  1  0
 18 19  1  0
 20 21  1  0
M  END
>  <PDB_ID>  (44) 
pdb2h66

>  <RESIDUE_NAME>  (44) 
ASN   HID

>  <FRAG_NAME>  (44) 
ACEM   MIMD

>  <FRAG_ATOM_NUM>  (44) 
fragi: 9  fragj: 12

>  <atom.prop.CHAIN_ID>  (44) 
A A A A A A A A A Z Z Z Z Z Z Z Z Z Z Z Z

>  <atom.prop.IS_HEAVY_ATOM>  (44) 
1 0 0 0 1 1 0 0 1 1 0 0 0 1 1 0 1 1 0 1 0

>  <DIFUSE_FUNC_ATOM>  (44) 
n/a

>  <FINAL_SINGLE_POINT_ENERGY>  (44) 
0

>  <NONCOV_INTER_ENERGY_QM>  (44) 
0

>  <FF_Energy>  (44) 
13.82

>  <QM_Energy>  (44) 
32.72

>  <source>  (44) 
ACEM_MIMD

>  <Index>  (44) 
4700

$$$$
ACEM-pdb2h66-H-ASN-142:MIMD-pdb2h66-G-HID-138
     RDKit          3D

 21 20  0  0  0  0  0  0  0  0999 V2000
   -5.4289    2.0108    1.3368 C   0  0  0  0  0  0  0  0  0  0  0  0
   -6.2945    1.6663    1.6975 H   0  0  0  0  0  0  0  0  0  0  0  0
   -5.6077    2.6928    0.6294 H   0  0  0  0  0  0  0  0  0  0  0  0
   -4.8900    2.4969    2.1501 H   0  0  0  0  0  0  0  0  0  0  0  0
   -4.6620    0.8764    0.7394 C   0  0  0  0  0  0  0  0  0  0  0  0
   -3.4310    1.1301    0.3596 N   0  0  0  0  0  0  0  0  0  0  0  0
   -3.0407    2.0479    0.4805 H   0  0  0  0  0  0  0  0  0  0  0  0
   -2.8666    0.4097   -0.0531 H   0  0  0  0  0  0  0  0  0  0  0  0
   -5.1784   -0.2377    0.6251 O   0  0  0  0  0  0  0  0  0  0  0  0
   -0.1645    2.6478    0.0189 C   0  0  0  0  0  0  0  0  0  0  0  0
   -1.0141    2.8876   -0.4762 H   0  0  0  0  0  0  0  0  0  0  0  0
    0.6100    3.0541   -0.4891 H   0  0  0  0  0  0  0  0  0  0  0  0
   -0.2006    3.0855    1.0165 H   0  0  0  0  0  0  0  0  0  0  0  0
   -0.0119    1.1660   -0.0053 C   0  0  0  0  0  0  0  0  0  0  0  0
    1.0906    0.3867   -0.0000 C   0  0  0  0  0  0  0  0  0  0  0  0
    2.0387    0.6973    0.0026 H   0  0  0  0  0  0  0  0  0  0  0  0
    0.6665   -0.9194    0.0013 N   0  0  0  0  0  0  0  0  0  0  0  0
   -0.6546   -0.9418    0.0040 C   0  0  0  0  0  0  0  0  0  0  0  0
   -1.2239   -1.7573    0.0102 H   0  0  0  0  0  0  0  0  0  0  0  0
   -1.0906    0.3085    0.0000 N   0  0  0  0  0  0  0  0  0  0  0  0
   -2.0500    0.5868    0.0003 H   0  0  0  0  0  0  0  0  0  0  0  0
  1  5  1  0
  5  6  1  0
  5  9  2  0
  1  2  1  0
  1  3  1  0
  1  4  1  0
  6  7  1  0
  6  8  1  0
 10 14  1  0
 14 15  2  0
 15 17  1  0
 17 18  2  0
 18 20  1  0
 20 14  1  0
 10 11  1  0
 10 12  1  0
 10 13  1  0
 15 16  1  0
 18 19  1  0
 20 21  1  0
M  END
>  <PDB_ID>  (45) 
pdb2h66

>  <RESIDUE_NAME>  (45) 
ASN   HID

>  <FRAG_NAME>  (45) 
ACEM   MIMD

>  <FRAG_ATOM_NUM>  (45) 
fragi: 9  fragj: 12

>  <atom.prop.CHAIN_ID>  (45) 
A A A A A A A A A Z Z Z Z Z Z Z Z Z Z Z Z

>  <atom.prop.IS_HEAVY_ATOM>  (45) 
1 0 0 0 1 1 0 0 1 1 0 0 0 1 1 0 1 1 0 1 0

>  <DIFUSE_FUNC_ATOM>  (45) 
n/a

>  <FINAL_SINGLE_POINT_ENERGY>  (45) 
0

>  <NONCOV_INTER_ENERGY_QM>  (45) 
0

>  <FF_Energy>  (45) 
29.99

>  <QM_Energy>  (45) 
57.4

>  <source>  (45) 
ACEM_MIMD

>  <Index>  (45) 
4701

$$$$
ACEM-pdb1gg2-B-ASN-132:MIMD-pdb1gg2-B-HID-91
     RDKit          3D

 21 20  0  0  0  0  0  0  0  0999 V2000
   -4.1319   -3.7218    0.7731 C   0  0  0  0  0  0  0  0  0  0  0  0
   -5.0105   -4.1828    0.8488 H   0  0  0  0  0  0  0  0  0  0  0  0
   -4.1280   -2.8917    1.3209 H   0  0  0  0  0  0  0  0  0  0  0  0
   -3.3620   -4.3894    1.1602 H   0  0  0  0  0  0  0  0  0  0  0  0
   -3.8944   -3.3555   -0.6715 C   0  0  0  0  0  0  0  0  0  0  0  0
   -3.0377   -2.3694   -0.9012 N   0  0  0  0  0  0  0  0  0  0  0  0
   -2.5834   -1.9143   -0.1320 H   0  0  0  0  0  0  0  0  0  0  0  0
   -2.8438   -2.0778   -1.8368 H   0  0  0  0  0  0  0  0  0  0  0  0
   -4.4935   -3.9429   -1.5728 O   0  0  0  0  0  0  0  0  0  0  0  0
   -0.1704    2.6388    0.0203 C   0  0  0  0  0  0  0  0  0  0  0  0
    0.7470    3.0540    0.0804 H   0  0  0  0  0  0  0  0  0  0  0  0
   -0.6848    2.8937    0.8496 H   0  0  0  0  0  0  0  0  0  0  0  0
   -0.6855    3.0341   -0.8552 H   0  0  0  0  0  0  0  0  0  0  0  0
   -0.0160    1.1633    0.0012 C   0  0  0  0  0  0  0  0  0  0  0  0
    1.0925    0.3900    0.0000 C   0  0  0  0  0  0  0  0  0  0  0  0
    2.0371    0.7044   -0.0004 H   0  0  0  0  0  0  0  0  0  0  0  0
    0.6683   -0.9158    0.0002 N   0  0  0  0  0  0  0  0  0  0  0  0
   -0.6523   -0.9409   -0.0013 C   0  0  0  0  0  0  0  0  0  0  0  0
   -1.2183   -1.7602   -0.0026 H   0  0  0  0  0  0  0  0  0  0  0  0
   -1.0925    0.3034    0.0000 N   0  0  0  0  0  0  0  0  0  0  0  0
   -2.0517    0.5810   -0.0001 H   0  0  0  0  0  0  0  0  0  0  0  0
  1  5  1  0
  5  6  1  0
  5  9  2  0
  1  2  1  0
  1  3  1  0
  1  4  1  0
  6  7  1  0
  6  8  1  0
 10 14  1  0
 14 15  2  0
 15 17  1  0
 17 18  2  0
 18 20  1  0
 20 14  1  0
 10 11  1  0
 10 12  1  0
 10 13  1  0
 15 16  1  0
 18 19  1  0
 20 21  1  0
M  END
>  <PDB_ID>  (46) 
pdb1gg2

>  <RESIDUE_NAME>  (46) 
ASN   HID

>  <FRAG_NAME>  (46) 
ACEM   MIMD

>  <FRAG_ATOM_NUM>  (46) 
fragi: 9  fragj: 12

>  <atom.prop.CHAIN_ID>  (46) 
A A A A A A A A A Z Z Z Z Z Z Z Z Z Z Z Z

>  <atom.prop.IS_HEAVY_ATOM>  (46) 
1 0 0 0 1 1 0 0 1 1 0 0 0 1 1 0 1 1 0 1 0

>  <DIFUSE_FUNC_ATOM>  (46) 
n/a

>  <FINAL_SINGLE_POINT_ENERGY>  (46) 
0

>  <NONCOV_INTER_ENERGY_QM>  (46) 
0

>  <FF_Energy>  (46) 
4.55

>  <QM_Energy>  (46) 
9.9

>  <source>  (46) 
ACEM_MIMD

>  <Index>  (46) 
4785

$$$$
ACEM-pdb1ghd-A-ASN-148:MIMD-pdb1ghd-A-HID-144
     RDKit          3D

 21 20  0  0  0  0  0  0  0  0999 V2000
   -3.7773   -1.6685    1.4473 C   0  0  0  0  0  0  0  0  0  0  0  0
   -2.8932   -1.2524    1.6585 H   0  0  0  0  0  0  0  0  0  0  0  0
   -3.7081   -2.6624    1.5263 H   0  0  0  0  0  0  0  0  0  0  0  0
   -4.4993   -1.3209    2.1862 H   0  0  0  0  0  0  0  0  0  0  0  0
   -4.1647   -1.3132    0.0481 C   0  0  0  0  0  0  0  0  0  0  0  0
   -3.6469   -0.2022   -0.4468 N   0  0  0  0  0  0  0  0  0  0  0  0
   -3.0235    0.3526    0.1082 H   0  0  0  0  0  0  0  0  0  0  0  0
   -3.8742    0.0902   -1.3769 H   0  0  0  0  0  0  0  0  0  0  0  0
   -4.9299   -2.0261   -0.5934 O   0  0  0  0  0  0  0  0  0  0  0  0
   -0.1978    2.6641    0.0073 C   0  0  0  0  0  0  0  0  0  0  0  0
   -0.1409    2.9923   -0.9460 H   0  0  0  0  0  0  0  0  0  0  0  0
    0.5705    3.0699    0.5211 H   0  0  0  0  0  0  0  0  0  0  0  0
   -1.1350    3.0080    0.4447 H   0  0  0  0  0  0  0  0  0  0  0  0
   -0.0193    1.1744   -0.0003 C   0  0  0  0  0  0  0  0  0  0  0  0
    1.0912    0.3944    0.0000 C   0  0  0  0  0  0  0  0  0  0  0  0
    2.0358    0.7076    0.0004 H   0  0  0  0  0  0  0  0  0  0  0  0
    0.6698   -0.9203    0.0005 N   0  0  0  0  0  0  0  0  0  0  0  0
   -0.6505   -0.9502   -0.0002 C   0  0  0  0  0  0  0  0  0  0  0  0
   -1.2174   -1.7653    0.0002 H   0  0  0  0  0  0  0  0  0  0  0  0
   -1.0912    0.3016   -0.0000 N   0  0  0  0  0  0  0  0  0  0  0  0
   -2.0538    0.5737    0.0006 H   0  0  0  0  0  0  0  0  0  0  0  0
  1  5  1  0
  5  6  1  0
  5  9  2  0
  1  2  1  0
  1  3  1  0
  1  4  1  0
  6  7  1  0
  6  8  1  0
 10 14  1  0
 14 15  2  0
 15 17  1  0
 17 18  2  0
 18 20  1  0
 20 14  1  0
 10 11  1  0
 10 12  1  0
 10 13  1  0
 15 16  1  0
 18 19  1  0
 20 21  1  0
M  END
>  <PDB_ID>  (47) 
pdb1ghd

>  <RESIDUE_NAME>  (47) 
ASN   HID

>  <FRAG_NAME>  (47) 
ACEM   MIMD

>  <FRAG_ATOM_NUM>  (47) 
fragi: 9  fragj: 12

>  <atom.prop.CHAIN_ID>  (47) 
A A A A A A A A A Z Z Z Z Z Z Z Z Z Z Z Z

>  <atom.prop.IS_HEAVY_ATOM>  (47) 
1 0 0 0 1 1 0 0 1 1 0 0 0 1 1 0 1 1 0 1 0

>  <DIFUSE_FUNC_ATOM>  (47) 
n/a

>  <FINAL_SINGLE_POINT_ENERGY>  (47) 
0

>  <NONCOV_INTER_ENERGY_QM>  (47) 
0

>  <FF_Energy>  (47) 
17.63

>  <QM_Energy>  (47) 
31.27

>  <source>  (47) 
ACEM_MIMD

>  <Index>  (47) 
4799

$$$$
ACEM-pdb1gk0-A-ASN-147:MIMD-pdb1gk0-A-HID-143
     RDKit          3D

 21 20  0  0  0  0  0  0  0  0999 V2000
   -3.6572   -1.3890    2.2574 C   0  0  0  0  0  0  0  0  0  0  0  0
   -2.7685   -0.9384    2.2496 H   0  0  0  0  0  0  0  0  0  0  0  0
   -3.5419   -2.3755    2.3343 H   0  0  0  0  0  0  0  0  0  0  0  0
   -4.2164   -1.0378    3.1246 H   0  0  0  0  0  0  0  0  0  0  0  0
   -4.3635   -1.0852    0.9491 C   0  0  0  0  0  0  0  0  0  0  0  0
   -3.8252   -0.1312    0.1937 N   0  0  0  0  0  0  0  0  0  0  0  0
   -2.9945    0.3359    0.5001 H   0  0  0  0  0  0  0  0  0  0  0  0
   -4.2479    0.1175   -0.6757 H   0  0  0  0  0  0  0  0  0  0  0  0
   -5.3870   -1.6937    0.6242 O   0  0  0  0  0  0  0  0  0  0  0  0
   -0.1755    2.6559   -0.0519 C   0  0  0  0  0  0  0  0  0  0  0  0
   -0.3480    2.9251   -1.0065 H   0  0  0  0  0  0  0  0  0  0  0  0
    0.6896    3.0763    0.2445 H   0  0  0  0  0  0  0  0  0  0  0  0
   -0.9836    3.0349    0.5739 H   0  0  0  0  0  0  0  0  0  0  0  0
   -0.0168    1.1678   -0.0032 C   0  0  0  0  0  0  0  0  0  0  0  0
    1.0924    0.3889    0.0000 C   0  0  0  0  0  0  0  0  0  0  0  0
    2.0366    0.7040    0.0024 H   0  0  0  0  0  0  0  0  0  0  0  0
    0.6693   -0.9184    0.0012 N   0  0  0  0  0  0  0  0  0  0  0  0
   -0.6524   -0.9416    0.0020 C   0  0  0  0  0  0  0  0  0  0  0  0
   -1.2188   -1.7606    0.0049 H   0  0  0  0  0  0  0  0  0  0  0  0
   -1.0924    0.3033   -0.0000 N   0  0  0  0  0  0  0  0  0  0  0  0
   -2.0529    0.5805   -0.0000 H   0  0  0  0  0  0  0  0  0  0  0  0
  1  5  1  0
  5  6  1  0
  5  9  2  0
  1  2  1  0
  1  3  1  0
  1  4  1  0
  6  7  1  0
  6  8  1  0
 10 14  1  0
 14 15  2  0
 15 17  1  0
 17 18  2  0
 18 20  1  0
 20 14  1  0
 10 11  1  0
 10 12  1  0
 10 13  1  0
 15 16  1  0
 18 19  1  0
 20 21  1  0
M  END
>  <PDB_ID>  (48) 
pdb1gk0

>  <RESIDUE_NAME>  (48) 
ASN   HID

>  <FRAG_NAME>  (48) 
ACEM   MIMD

>  <FRAG_ATOM_NUM>  (48) 
fragi: 9  fragj: 12

>  <atom.prop.CHAIN_ID>  (48) 
A A A A A A A A A Z Z Z Z Z Z Z Z Z Z Z Z

>  <atom.prop.IS_HEAVY_ATOM>  (48) 
1 0 0 0 1 1 0 0 1 1 0 0 0 1 1 0 1 1 0 1 0

>  <DIFUSE_FUNC_ATOM>  (48) 
n/a

>  <FINAL_SINGLE_POINT_ENERGY>  (48) 
0

>  <NONCOV_INTER_ENERGY_QM>  (48) 
0

>  <FF_Energy>  (48) 
11.0

>  <QM_Energy>  (48) 
21.29

>  <source>  (48) 
ACEM_MIMD

>  <Index>  (48) 
4841

$$$$
ACEM-pdb1gk0-C-ASN-147:MIMD-pdb1gk0-C-HID-143
     RDKit          3D

 21 20  0  0  0  0  0  0  0  0999 V2000
   -3.6879   -1.3848    2.2292 C   0  0  0  0  0  0  0  0  0  0  0  0
   -2.7963   -0.9413    2.2273 H   0  0  0  0  0  0  0  0  0  0  0  0
   -3.5831   -2.3708    2.3156 H   0  0  0  0  0  0  0  0  0  0  0  0
   -4.2534   -1.0206    3.0869 H   0  0  0  0  0  0  0  0  0  0  0  0
   -4.3800   -1.0855    0.9151 C   0  0  0  0  0  0  0  0  0  0  0  0
   -3.8138   -0.1563    0.1444 N   0  0  0  0  0  0  0  0  0  0  0  0
   -2.9728    0.2941    0.4477 H   0  0  0  0  0  0  0  0  0  0  0  0
   -4.2268    0.0873   -0.7299 H   0  0  0  0  0  0  0  0  0  0  0  0
   -5.4200   -1.6740    0.5991 O   0  0  0  0  0  0  0  0  0  0  0  0
   -0.1722    2.6526   -0.0650 C   0  0  0  0  0  0  0  0  0  0  0  0
   -0.3272    2.9181   -1.0244 H   0  0  0  0  0  0  0  0  0  0  0  0
    0.6882    3.0742    0.2448 H   0  0  0  0  0  0  0  0  0  0  0  0
   -0.9911    3.0363    0.5435 H   0  0  0  0  0  0  0  0  0  0  0  0
   -0.0163    1.1676   -0.0059 C   0  0  0  0  0  0  0  0  0  0  0  0
    1.0906    0.3888    0.0000 C   0  0  0  0  0  0  0  0  0  0  0  0
    2.0365    0.7029    0.0027 H   0  0  0  0  0  0  0  0  0  0  0  0
    0.6677   -0.9187    0.0023 N   0  0  0  0  0  0  0  0  0  0  0  0
   -0.6514   -0.9418    0.0036 C   0  0  0  0  0  0  0  0  0  0  0  0
   -1.2203   -1.7603    0.0080 H   0  0  0  0  0  0  0  0  0  0  0  0
   -1.0906    0.3040    0.0000 N   0  0  0  0  0  0  0  0  0  0  0  0
   -2.0518    0.5804    0.0009 H   0  0  0  0  0  0  0  0  0  0  0  0
  1  5  1  0
  5  6  1  0
  5  9  2  0
  1  2  1  0
  1  3  1  0
  1  4  1  0
  6  7  1  0
  6  8  1  0
 10 14  1  0
 14 15  2  0
 15 17  1  0
 17 18  2  0
 18 20  1  0
 20 14  1  0
 10 11  1  0
 10 12  1  0
 10 13  1  0
 15 16  1  0
 18 19  1  0
 20 21  1  0
M  END
>  <PDB_ID>  (49) 
pdb1gk0

>  <RESIDUE_NAME>  (49) 
ASN   HID

>  <FRAG_NAME>  (49) 
ACEM   MIMD

>  <FRAG_ATOM_NUM>  (49) 
fragi: 9  fragj: 12

>  <atom.prop.CHAIN_ID>  (49) 
A A A A A A A A A Z Z Z Z Z Z Z Z Z Z Z Z

>  <atom.prop.IS_HEAVY_ATOM>  (49) 
1 0 0 0 1 1 0 0 1 1 0 0 0 1 1 0 1 1 0 1 0

>  <DIFUSE_FUNC_ATOM>  (49) 
n/a

>  <FINAL_SINGLE_POINT_ENERGY>  (49) 
0

>  <NONCOV_INTER_ENERGY_QM>  (49) 
0

>  <FF_Energy>  (49) 
11.84

>  <QM_Energy>  (49) 
23.32

>  <source>  (49) 
ACEM_MIMD

>  <Index>  (49) 
4843

$$$$
ACEM-pdb1gsq-A-GLN-116:MIMD-pdb1gsq-A-HID-166
     RDKit          3D

 21 20  0  0  0  0  0  0  0  0999 V2000
   -2.6613   -5.5235    0.9109 C   0  0  0  0  0  0  0  0  0  0  0  0
   -2.3649   -5.7666   -0.0297 H   0  0  0  0  0  0  0  0  0  0  0  0
   -3.6445   -5.7672    0.9838 H   0  0  0  0  0  0  0  0  0  0  0  0
   -2.0969   -6.1248    1.6237 H   0  0  0  0  0  0  0  0  0  0  0  0
   -2.5283   -4.0405    1.0782 C   0  0  0  0  0  0  0  0  0  0  0  0
   -1.2995   -3.5611    0.8717 N   0  0  0  0  0  0  0  0  0  0  0  0
   -1.1196   -2.5495    0.9509 H   0  0  0  0  0  0  0  0  0  0  0  0
   -0.5514   -4.1983    0.6371 H   0  0  0  0  0  0  0  0  0  0  0  0
   -3.4348   -3.2494    1.3532 O   0  0  0  0  0  0  0  0  0  0  0  0
   -0.0337    2.6520    0.1024 C   0  0  0  0  0  0  0  0  0  0  0  0
    0.9009    3.0069    0.2784 H   0  0  0  0  0  0  0  0  0  0  0  0
   -0.6084    2.9175    0.8953 H   0  0  0  0  0  0  0  0  0  0  0  0
   -0.4282    3.1393   -0.7893 H   0  0  0  0  0  0  0  0  0  0  0  0
    0.0302    1.1683    0.0452 C   0  0  0  0  0  0  0  0  0  0  0  0
    1.0870    0.3407    0.0000 C   0  0  0  0  0  0  0  0  0  0  0  0
    2.0589    0.6249   -0.0256 H   0  0  0  0  0  0  0  0  0  0  0  0
    0.6475   -0.9584   -0.0053 N   0  0  0  0  0  0  0  0  0  0  0  0
   -0.6777   -0.9159   -0.0400 C   0  0  0  0  0  0  0  0  0  0  0  0
   -1.2848   -1.7059   -0.0864 H   0  0  0  0  0  0  0  0  0  0  0  0
   -1.0870    0.3654   -0.0000 N   0  0  0  0  0  0  0  0  0  0  0  0
   -2.0270    0.6651   -0.0039 H   0  0  0  0  0  0  0  0  0  0  0  0
  1  5  1  0
  5  6  1  0
  5  9  2  0
  1  2  1  0
  1  3  1  0
  1  4  1  0
  6  7  1  0
  6  8  1  0
 10 14  1  0
 14 15  2  0
 15 17  1  0
 17 18  2  0
 18 20  1  0
 20 14  1  0
 10 11  1  0
 10 12  1  0
 10 13  1  0
 15 16  1  0
 18 19  1  0
 20 21  1  0
M  END
>  <PDB_ID>  (50) 
pdb1gsq

>  <RESIDUE_NAME>  (50) 
GLN   HID

>  <FRAG_NAME>  (50) 
ACEM   MIMD

>  <FRAG_ATOM_NUM>  (50) 
fragi: 9  fragj: 12

>  <atom.prop.CHAIN_ID>  (50) 
A A A A A A A A A Z Z Z Z Z Z Z Z Z Z Z Z

>  <atom.prop.IS_HEAVY_ATOM>  (50) 
1 0 0 0 1 1 0 0 1 1 0 0 0 1 1 0 1 1 0 1 0

>  <DIFUSE_FUNC_ATOM>  (50) 
n/a

>  <FINAL_SINGLE_POINT_ENERGY>  (50) 
0

>  <NONCOV_INTER_ENERGY_QM>  (50) 
0

>  <FF_Energy>  (50) 
-0.67

>  <QM_Energy>  (50) 
6.7

>  <source>  (50) 
ACEM_MIMD

>  <Index>  (50) 
4986

$$$$
ACEM-pdb2hvb-D-ASN-52:MIMD-pdb2hvb-D-HID-84
     RDKit          3D

 21 20  0  0  0  0  0  0  0  0999 V2000
   -5.0891    2.6077    1.6442 C   0  0  0  0  0  0  0  0  0  0  0  0
   -5.8236    2.0128    1.9513 H   0  0  0  0  0  0  0  0  0  0  0  0
   -5.4581    3.4536    1.2749 H   0  0  0  0  0  0  0  0  0  0  0  0
   -4.4585    2.8499    2.4997 H   0  0  0  0  0  0  0  0  0  0  0  0
   -4.3210    1.8896    0.5298 C   0  0  0  0  0  0  0  0  0  0  0  0
   -2.9999    1.8548    0.6450 N   0  0  0  0  0  0  0  0  0  0  0  0
   -2.5590    2.2822    1.4389 H   0  0  0  0  0  0  0  0  0  0  0  0
   -2.4447    1.4060   -0.0521 H   0  0  0  0  0  0  0  0  0  0  0  0
   -4.9171    1.3801   -0.4199 O   0  0  0  0  0  0  0  0  0  0  0  0
   -0.1748    2.6493   -0.0810 C   0  0  0  0  0  0  0  0  0  0  0  0
    0.6531    3.0742    0.2960 H   0  0  0  0  0  0  0  0  0  0  0  0
   -0.9602    2.9120    0.4857 H   0  0  0  0  0  0  0  0  0  0  0  0
   -0.3313    3.0059   -1.0991 H   0  0  0  0  0  0  0  0  0  0  0  0
   -0.0171    1.1659   -0.0036 C   0  0  0  0  0  0  0  0  0  0  0  0
    1.0911    0.3877   -0.0000 C   0  0  0  0  0  0  0  0  0  0  0  0
    2.0360    0.7035    0.0018 H   0  0  0  0  0  0  0  0  0  0  0  0
    0.6688   -0.9178    0.0018 N   0  0  0  0  0  0  0  0  0  0  0  0
   -0.6518   -0.9411    0.0017 C   0  0  0  0  0  0  0  0  0  0  0  0
   -1.2189   -1.7595    0.0039 H   0  0  0  0  0  0  0  0  0  0  0  0
   -1.0911    0.3053    0.0000 N   0  0  0  0  0  0  0  0  0  0  0  0
   -2.0517    0.5810    0.0005 H   0  0  0  0  0  0  0  0  0  0  0  0
  1  5  1  0
  5  6  1  0
  5  9  2  0
  1  2  1  0
  1  3  1  0
  1  4  1  0
  6  7  1  0
  6  8  1  0
 10 14  1  0
 14 15  2  0
 15 17  1  0
 17 18  2  0
 18 20  1  0
 20 14  1  0
 10 11  1  0
 10 12  1  0
 10 13  1  0
 15 16  1  0
 18 19  1  0
 20 21  1  0
M  END
>  <PDB_ID>  (51) 
pdb2hvb

>  <RESIDUE_NAME>  (51) 
ASN   HID

>  <FRAG_NAME>  (51) 
ACEM   MIMD

>  <FRAG_ATOM_NUM>  (51) 
fragi: 9  fragj: 12

>  <atom.prop.CHAIN_ID>  (51) 
A A A A A A A A A Z Z Z Z Z Z Z Z Z Z Z Z

>  <atom.prop.IS_HEAVY_ATOM>  (51) 
1 0 0 0 1 1 0 0 1 1 0 0 0 1 1 0 1 1 0 1 0

>  <DIFUSE_FUNC_ATOM>  (51) 
n/a

>  <FINAL_SINGLE_POINT_ENERGY>  (51) 
0

>  <NONCOV_INTER_ENERGY_QM>  (51) 
0

>  <FF_Energy>  (51) 
25.31

>  <QM_Energy>  (51) 
44.59

>  <source>  (51) 
ACEM_MIMD

>  <Index>  (51) 
5181

$$$$
ACEM-pdb2hzp-A-GLN-175:MIMD-pdb2hzp-A-HID-142
     RDKit          3D

 21 20  0  0  0  0  0  0  0  0999 V2000
   -4.5846   -0.7405   -1.4587 C   0  0  0  0  0  0  0  0  0  0  0  0
   -3.7434   -1.0954   -1.0461 H   0  0  0  0  0  0  0  0  0  0  0  0
   -4.4089   -0.5094   -2.4173 H   0  0  0  0  0  0  0  0  0  0  0  0
   -5.3357   -1.5300   -1.4316 H   0  0  0  0  0  0  0  0  0  0  0  0
   -4.9957    0.5246   -0.7173 C   0  0  0  0  0  0  0  0  0  0  0  0
   -4.0169    1.2013   -0.1141 N   0  0  0  0  0  0  0  0  0  0  0  0
   -4.2146    2.0600    0.3860 H   0  0  0  0  0  0  0  0  0  0  0  0
   -3.0680    0.8380   -0.1664 H   0  0  0  0  0  0  0  0  0  0  0  0
   -6.1664    0.9038   -0.7062 O   0  0  0  0  0  0  0  0  0  0  0  0
   -0.1761    2.6551   -0.0316 C   0  0  0  0  0  0  0  0  0  0  0  0
    0.7398    3.0713    0.0119 H   0  0  0  0  0  0  0  0  0  0  0  0
   -0.6854    2.9214    0.7949 H   0  0  0  0  0  0  0  0  0  0  0  0
   -0.6990    3.0383   -0.9078 H   0  0  0  0  0  0  0  0  0  0  0  0
   -0.0173    1.1676   -0.0257 C   0  0  0  0  0  0  0  0  0  0  0  0
    1.0920    0.3897   -0.0000 C   0  0  0  0  0  0  0  0  0  0  0  0
    2.0362    0.7053    0.0087 H   0  0  0  0  0  0  0  0  0  0  0  0
    0.6697   -0.9183    0.0133 N   0  0  0  0  0  0  0  0  0  0  0  0
   -0.6524   -0.9430    0.0124 C   0  0  0  0  0  0  0  0  0  0  0  0
   -1.2192   -1.7610    0.0208 H   0  0  0  0  0  0  0  0  0  0  0  0
   -1.0920    0.3040    0.0000 N   0  0  0  0  0  0  0  0  0  0  0  0
   -2.0524    0.5801    0.0076 H   0  0  0  0  0  0  0  0  0  0  0  0
  1  5  1  0
  5  6  1  0
  5  9  2  0
  1  2  1  0
  1  3  1  0
  1  4  1  0
  6  7  1  0
  6  8  1  0
 10 14  1  0
 14 15  2  0
 15 17  1  0
 17 18  2  0
 18 20  1  0
 20 14  1  0
 10 11  1  0
 10 12  1  0
 10 13  1  0
 15 16  1  0
 18 19  1  0
 20 21  1  0
M  END
>  <PDB_ID>  (52) 
pdb2hzp

>  <RESIDUE_NAME>  (52) 
GLN   HID

>  <FRAG_NAME>  (52) 
ACEM   MIMD

>  <FRAG_ATOM_NUM>  (52) 
fragi: 9  fragj: 12

>  <atom.prop.CHAIN_ID>  (52) 
A A A A A A A A A Z Z Z Z Z Z Z Z Z Z Z Z

>  <atom.prop.IS_HEAVY_ATOM>  (52) 
1 0 0 0 1 1 0 0 1 1 0 0 0 1 1 0 1 1 0 1 0

>  <DIFUSE_FUNC_ATOM>  (52) 
n/a

>  <FINAL_SINGLE_POINT_ENERGY>  (52) 
0

>  <NONCOV_INTER_ENERGY_QM>  (52) 
0

>  <FF_Energy>  (52) 
8.94

>  <QM_Energy>  (52) 
20.43

>  <source>  (52) 
ACEM_MIMD

>  <Index>  (52) 
5268

$$$$
ACEM-pdb1hcr-A-GLN-164:MIMD-pdb1hcr-A-HID-160
     RDKit          3D

 21 20  0  0  0  0  0  0  0  0999 V2000
   -5.2770    2.4362    1.4921 C   0  0  0  0  0  0  0  0  0  0  0  0
   -4.7006    2.6876    2.2880 H   0  0  0  0  0  0  0  0  0  0  0  0
   -6.0737    1.9198    1.8493 H   0  0  0  0  0  0  0  0  0  0  0  0
   -5.6441    3.3547    1.0341 H   0  0  0  0  0  0  0  0  0  0  0  0
   -4.4675    1.5034    0.5954 C   0  0  0  0  0  0  0  0  0  0  0  0
   -3.5098    0.7145    1.0500 N   0  0  0  0  0  0  0  0  0  0  0  0
   -2.9910    0.1034    0.5075 H   0  0  0  0  0  0  0  0  0  0  0  0
   -3.3137    0.7711    2.0821 H   0  0  0  0  0  0  0  0  0  0  0  0
   -4.5700    1.5375   -0.6249 O   0  0  0  0  0  0  0  0  0  0  0  0
    0.0763    2.6674   -0.0820 C   0  0  0  0  0  0  0  0  0  0  0  0
    0.9549    2.9301    0.3413 H   0  0  0  0  0  0  0  0  0  0  0  0
   -0.6679    3.0418    0.4893 H   0  0  0  0  0  0  0  0  0  0  0  0
    0.0139    3.0906   -1.0846 H   0  0  0  0  0  0  0  0  0  0  0  0
   -0.0228    1.1429   -0.0129 C   0  0  0  0  0  0  0  0  0  0  0  0
    1.0784    0.3312   -0.0000 C   0  0  0  0  0  0  0  0  0  0  0  0
    2.0308    0.6795    0.0055 H   0  0  0  0  0  0  0  0  0  0  0  0
    0.6678   -0.8990    0.0034 N   0  0  0  0  0  0  0  0  0  0  0  0
   -0.6450   -0.9072    0.0095 C   0  0  0  0  0  0  0  0  0  0  0  0
   -1.2214   -1.7269    0.0203 H   0  0  0  0  0  0  0  0  0  0  0  0
   -1.0784    0.3321    0.0000 N   0  0  0  0  0  0  0  0  0  0  0  0
   -2.0447    0.6030    0.0028 H   0  0  0  0  0  0  0  0  0  0  0  0
  1  5  1  0
  5  6  1  0
  5  9  2  0
  1  2  1  0
  1  3  1  0
  1  4  1  0
  6  7  1  0
  6  8  1  0
 10 14  1  0
 14 15  2  0
 15 17  1  0
 17 18  2  0
 18 20  1  0
 20 14  1  0
 10 11  1  0
 10 12  1  0
 10 13  1  0
 15 16  1  0
 18 19  1  0
 20 21  1  0
M  END
>  <PDB_ID>  (53) 
pdb1hcr

>  <RESIDUE_NAME>  (53) 
GLN   HID

>  <FRAG_NAME>  (53) 
ACEM   MIMD

>  <FRAG_ATOM_NUM>  (53) 
fragi: 9  fragj: 12

>  <atom.prop.CHAIN_ID>  (53) 
A A A A A A A A A Z Z Z Z Z Z Z Z Z Z Z Z

>  <atom.prop.IS_HEAVY_ATOM>  (53) 
1 0 0 0 1 1 0 0 1 1 0 0 0 1 1 0 1 1 0 1 0

>  <DIFUSE_FUNC_ATOM>  (53) 
n/a

>  <FINAL_SINGLE_POINT_ENERGY>  (53) 
0

>  <NONCOV_INTER_ENERGY_QM>  (53) 
0

>  <FF_Energy>  (53) 
8.71

>  <QM_Energy>  (53) 
17.56

>  <source>  (53) 
ACEM_MIMD

>  <Index>  (53) 
5440

$$$$
ACEM-pdb1hvx-A-GLN-10:MIMD-pdb1hvx-A-HID-330
     RDKit          3D

 21 20  0  0  0  0  0  0  0  0999 V2000
   -5.0554    1.2335    3.1882 C   0  0  0  0  0  0  0  0  0  0  0  0
   -4.7891    2.0987    3.6235 H   0  0  0  0  0  0  0  0  0  0  0  0
   -4.7295    0.4724    3.7565 H   0  0  0  0  0  0  0  0  0  0  0  0
   -6.1430    1.1888    3.1320 H   0  0  0  0  0  0  0  0  0  0  0  0
   -4.3683    1.1497    1.8345 C   0  0  0  0  0  0  0  0  0  0  0  0
   -3.0416    1.2391    1.8217 N   0  0  0  0  0  0  0  0  0  0  0  0
   -2.5212    1.1781    0.9581 H   0  0  0  0  0  0  0  0  0  0  0  0
   -2.5531    1.3740    2.7090 H   0  0  0  0  0  0  0  0  0  0  0  0
   -5.0329    1.0184    0.8048 O   0  0  0  0  0  0  0  0  0  0  0  0
   -0.1792    2.6541   -0.0897 C   0  0  0  0  0  0  0  0  0  0  0  0
    0.7209    3.0792    0.0448 H   0  0  0  0  0  0  0  0  0  0  0  0
   -0.7878    2.9454    0.6541 H   0  0  0  0  0  0  0  0  0  0  0  0
   -0.5933    2.9977   -1.0376 H   0  0  0  0  0  0  0  0  0  0  0  0
   -0.0176    1.1679   -0.0129 C   0  0  0  0  0  0  0  0  0  0  0  0
    1.0917    0.3912    0.0000 C   0  0  0  0  0  0  0  0  0  0  0  0
    2.0362    0.7053    0.0046 H   0  0  0  0  0  0  0  0  0  0  0  0
    0.6693   -0.9186    0.0066 N   0  0  0  0  0  0  0  0  0  0  0  0
   -0.6517   -0.9434    0.0063 C   0  0  0  0  0  0  0  0  0  0  0  0
   -1.2179   -1.7620    0.0119 H   0  0  0  0  0  0  0  0  0  0  0  0
   -1.0917    0.3028   -0.0000 N   0  0  0  0  0  0  0  0  0  0  0  0
   -2.0525    0.5784    0.0035 H   0  0  0  0  0  0  0  0  0  0  0  0
  1  5  1  0
  5  6  1  0
  5  9  2  0
  1  2  1  0
  1  3  1  0
  1  4  1  0
  6  7  1  0
  6  8  1  0
 10 14  1  0
 14 15  2  0
 15 17  1  0
 17 18  2  0
 18 20  1  0
 20 14  1  0
 10 11  1  0
 10 12  1  0
 10 13  1  0
 15 16  1  0
 18 19  1  0
 20 21  1  0
M  END
>  <PDB_ID>  (54) 
pdb1hvx

>  <RESIDUE_NAME>  (54) 
GLN   HID

>  <FRAG_NAME>  (54) 
ACEM   MIMD

>  <FRAG_ATOM_NUM>  (54) 
fragi: 9  fragj: 12

>  <atom.prop.CHAIN_ID>  (54) 
A A A A A A A A A Z Z Z Z Z Z Z Z Z Z Z Z

>  <atom.prop.IS_HEAVY_ATOM>  (54) 
1 0 0 0 1 1 0 0 1 1 0 0 0 1 1 0 1 1 0 1 0

>  <DIFUSE_FUNC_ATOM>  (54) 
n/a

>  <FINAL_SINGLE_POINT_ENERGY>  (54) 
0

>  <NONCOV_INTER_ENERGY_QM>  (54) 
0

>  <FF_Energy>  (54) 
5.35

>  <QM_Energy>  (54) 
13.58

>  <source>  (54) 
ACEM_MIMD

>  <Index>  (54) 
5709

$$$$
ACEM-pdb2inu-A-ASN-238:MIMD-pdb2inu-A-HID-214
     RDKit          3D

 21 20  0  0  0  0  0  0  0  0999 V2000
   -4.6823   -4.3232    0.4108 C   0  0  0  0  0  0  0  0  0  0  0  0
   -4.7499   -5.3063    0.2799 H   0  0  0  0  0  0  0  0  0  0  0  0
   -5.1291   -3.8418   -0.3355 H   0  0  0  0  0  0  0  0  0  0  0  0
   -5.1933   -4.0656    1.3385 H   0  0  0  0  0  0  0  0  0  0  0  0
   -3.2197   -3.9344    0.4359 C   0  0  0  0  0  0  0  0  0  0  0  0
   -2.9506   -2.6334    0.5729 N   0  0  0  0  0  0  0  0  0  0  0  0
   -3.7038   -1.9806    0.6576 H   0  0  0  0  0  0  0  0  0  0  0  0
   -2.0056   -2.3186    0.5906 H   0  0  0  0  0  0  0  0  0  0  0  0
   -2.3375   -4.7927    0.3190 O   0  0  0  0  0  0  0  0  0  0  0  0
   -0.1852    2.6515   -0.0505 C   0  0  0  0  0  0  0  0  0  0  0  0
   -0.0453    2.9556   -1.0026 H   0  0  0  0  0  0  0  0  0  0  0  0
    0.5361    3.0696    0.5197 H   0  0  0  0  0  0  0  0  0  0  0  0
   -1.1546    3.0124    0.2931 H   0  0  0  0  0  0  0  0  0  0  0  0
   -0.0287    1.1732    0.0007 C   0  0  0  0  0  0  0  0  0  0  0  0
    1.0918    0.3913    0.0000 C   0  0  0  0  0  0  0  0  0  0  0  0
    2.0318    0.7154    0.0006 H   0  0  0  0  0  0  0  0  0  0  0  0
    0.6717   -0.9116   -0.0005 N   0  0  0  0  0  0  0  0  0  0  0  0
   -0.6430   -0.9462   -0.0003 C   0  0  0  0  0  0  0  0  0  0  0  0
   -1.2057   -1.7707    0.0008 H   0  0  0  0  0  0  0  0  0  0  0  0
   -1.0918    0.2933    0.0000 N   0  0  0  0  0  0  0  0  0  0  0  0
   -2.0576    0.5611   -0.0011 H   0  0  0  0  0  0  0  0  0  0  0  0
  1  5  1  0
  5  6  1  0
  5  9  2  0
  1  2  1  0
  1  3  1  0
  1  4  1  0
  6  7  1  0
  6  8  1  0
 10 14  1  0
 14 15  2  0
 15 17  1  0
 17 18  2  0
 18 20  1  0
 20 14  1  0
 10 11  1  0
 10 12  1  0
 10 13  1  0
 15 16  1  0
 18 19  1  0
 20 21  1  0
M  END
>  <PDB_ID>  (55) 
pdb2inu

>  <RESIDUE_NAME>  (55) 
ASN   HID

>  <FRAG_NAME>  (55) 
ACEM   MIMD

>  <FRAG_ATOM_NUM>  (55) 
fragi: 9  fragj: 12

>  <atom.prop.CHAIN_ID>  (55) 
A A A A A A A A A Z Z Z Z Z Z Z Z Z Z Z Z

>  <atom.prop.IS_HEAVY_ATOM>  (55) 
1 0 0 0 1 1 0 0 1 1 0 0 0 1 1 0 1 1 0 1 0

>  <DIFUSE_FUNC_ATOM>  (55) 
n/a

>  <FINAL_SINGLE_POINT_ENERGY>  (55) 
0

>  <NONCOV_INTER_ENERGY_QM>  (55) 
0

>  <FF_Energy>  (55) 
7.55

>  <QM_Energy>  (55) 
19.02

>  <source>  (55) 
ACEM_MIMD

>  <Index>  (55) 
5759

$$$$
ACEM-pdb2inu-B-ASN-238:MIMD-pdb2inu-B-HID-214
     RDKit          3D

 21 20  0  0  0  0  0  0  0  0999 V2000
   -4.5960   -4.4144   -0.5791 C   0  0  0  0  0  0  0  0  0  0  0  0
   -4.6209   -5.4001   -0.7058 H   0  0  0  0  0  0  0  0  0  0  0  0
   -4.8735   -3.9489   -1.4116 H   0  0  0  0  0  0  0  0  0  0  0  0
   -5.2935   -4.1490    0.2153 H   0  0  0  0  0  0  0  0  0  0  0  0
   -3.1678   -4.0062   -0.2502 C   0  0  0  0  0  0  0  0  0  0  0  0
   -2.9493   -2.7061   -0.0818 N   0  0  0  0  0  0  0  0  0  0  0  0
   -3.7068   -2.0579   -0.1676 H   0  0  0  0  0  0  0  0  0  0  0  0
   -2.0308   -2.3749    0.1314 H   0  0  0  0  0  0  0  0  0  0  0  0
   -2.2724   -4.8500   -0.1554 O   0  0  0  0  0  0  0  0  0  0  0  0
   -0.1748    2.6521   -0.0157 C   0  0  0  0  0  0  0  0  0  0  0  0
    0.2159    3.0035   -0.8774 H   0  0  0  0  0  0  0  0  0  0  0  0
    0.3573    3.0381    0.7494 H   0  0  0  0  0  0  0  0  0  0  0  0
   -1.2054    2.9969    0.0675 H   0  0  0  0  0  0  0  0  0  0  0  0
   -0.0231    1.1714    0.0026 C   0  0  0  0  0  0  0  0  0  0  0  0
    1.0927    0.3899   -0.0000 C   0  0  0  0  0  0  0  0  0  0  0  0
    2.0343    0.7083    0.0003 H   0  0  0  0  0  0  0  0  0  0  0  0
    0.6686   -0.9152   -0.0014 N   0  0  0  0  0  0  0  0  0  0  0  0
   -0.6455   -0.9434   -0.0013 C   0  0  0  0  0  0  0  0  0  0  0  0
   -1.2121   -1.7658   -0.0008 H   0  0  0  0  0  0  0  0  0  0  0  0
   -1.0927    0.2974    0.0000 N   0  0  0  0  0  0  0  0  0  0  0  0
   -2.0551    0.5691   -0.0015 H   0  0  0  0  0  0  0  0  0  0  0  0
  1  5  1  0
  5  6  1  0
  5  9  2  0
  1  2  1  0
  1  3  1  0
  1  4  1  0
  6  7  1  0
  6  8  1  0
 10 14  1  0
 14 15  2  0
 15 17  1  0
 17 18  2  0
 18 20  1  0
 20 14  1  0
 10 11  1  0
 10 12  1  0
 10 13  1  0
 15 16  1  0
 18 19  1  0
 20 21  1  0
M  END
>  <PDB_ID>  (56) 
pdb2inu

>  <RESIDUE_NAME>  (56) 
ASN   HID

>  <FRAG_NAME>  (56) 
ACEM   MIMD

>  <FRAG_ATOM_NUM>  (56) 
fragi: 9  fragj: 12

>  <atom.prop.CHAIN_ID>  (56) 
A A A A A A A A A Z Z Z Z Z Z Z Z Z Z Z Z

>  <atom.prop.IS_HEAVY_ATOM>  (56) 
1 0 0 0 1 1 0 0 1 1 0 0 0 1 1 0 1 1 0 1 0

>  <DIFUSE_FUNC_ATOM>  (56) 
n/a

>  <FINAL_SINGLE_POINT_ENERGY>  (56) 
0

>  <NONCOV_INTER_ENERGY_QM>  (56) 
0

>  <FF_Energy>  (56) 
9.94

>  <QM_Energy>  (56) 
25.71

>  <source>  (56) 
ACEM_MIMD

>  <Index>  (56) 
5761

$$$$
ACEM-pdb2inu-C-ASN-238:MIMD-pdb2inu-C-HID-214
     RDKit          3D

 21 20  0  0  0  0  0  0  0  0999 V2000
   -4.5224   -4.3001    1.1325 C   0  0  0  0  0  0  0  0  0  0  0  0
   -4.5620   -5.2891    1.0414 H   0  0  0  0  0  0  0  0  0  0  0  0
   -5.1133   -3.8648    0.4615 H   0  0  0  0  0  0  0  0  0  0  0  0
   -4.8758   -4.0312    2.1279 H   0  0  0  0  0  0  0  0  0  0  0  0
   -3.0950   -3.8472    0.8898 C   0  0  0  0  0  0  0  0  0  0  0  0
   -2.8243   -2.5721    1.1591 N   0  0  0  0  0  0  0  0  0  0  0  0
   -3.5473   -1.9736    1.5069 H   0  0  0  0  0  0  0  0  0  0  0  0
   -1.9040   -2.2134    1.0139 H   0  0  0  0  0  0  0  0  0  0  0  0
   -2.2452   -4.6344    0.4556 O   0  0  0  0  0  0  0  0  0  0  0  0
   -0.1877    2.6502   -0.0607 C   0  0  0  0  0  0  0  0  0  0  0  0
   -0.2098    2.9310   -1.0299 H   0  0  0  0  0  0  0  0  0  0  0  0
    0.6190    3.0779    0.3700 H   0  0  0  0  0  0  0  0  0  0  0  0
   -1.0850    3.0250    0.4317 H   0  0  0  0  0  0  0  0  0  0  0  0
   -0.0278    1.1727   -0.0001 C   0  0  0  0  0  0  0  0  0  0  0  0
    1.0919    0.3916   -0.0000 C   0  0  0  0  0  0  0  0  0  0  0  0
    2.0316    0.7143    0.0009 H   0  0  0  0  0  0  0  0  0  0  0  0
    0.6719   -0.9119   -0.0002 N   0  0  0  0  0  0  0  0  0  0  0  0
   -0.6440   -0.9457    0.0004 C   0  0  0  0  0  0  0  0  0  0  0  0
   -1.2060   -1.7705    0.0024 H   0  0  0  0  0  0  0  0  0  0  0  0
   -1.0919    0.2932    0.0000 N   0  0  0  0  0  0  0  0  0  0  0  0
   -2.0581    0.5627   -0.0011 H   0  0  0  0  0  0  0  0  0  0  0  0
  1  5  1  0
  5  6  1  0
  5  9  2  0
  1  2  1  0
  1  3  1  0
  1  4  1  0
  6  7  1  0
  6  8  1  0
 10 14  1  0
 14 15  2  0
 15 17  1  0
 17 18  2  0
 18 20  1  0
 20 14  1  0
 10 11  1  0
 10 12  1  0
 10 13  1  0
 15 16  1  0
 18 19  1  0
 20 21  1  0
M  END
>  <PDB_ID>  (57) 
pdb2inu

>  <RESIDUE_NAME>  (57) 
ASN   HID

>  <FRAG_NAME>  (57) 
ACEM   MIMD

>  <FRAG_ATOM_NUM>  (57) 
fragi: 9  fragj: 12

>  <atom.prop.CHAIN_ID>  (57) 
A A A A A A A A A Z Z Z Z Z Z Z Z Z Z Z Z

>  <atom.prop.IS_HEAVY_ATOM>  (57) 
1 0 0 0 1 1 0 0 1 1 0 0 0 1 1 0 1 1 0 1 0

>  <DIFUSE_FUNC_ATOM>  (57) 
n/a

>  <FINAL_SINGLE_POINT_ENERGY>  (57) 
0

>  <NONCOV_INTER_ENERGY_QM>  (57) 
0

>  <FF_Energy>  (57) 
4.24

>  <QM_Energy>  (57) 
11.22

>  <source>  (57) 
ACEM_MIMD

>  <Index>  (57) 
5764

$$$$
ACEM-pdb2iuj-A-ASN-553:MIMD-pdb2iuj-A-HID-518
     RDKit          3D

 21 20  0  0  0  0  0  0  0  0999 V2000
   -5.7018    2.2176   -0.3605 C   0  0  0  0  0  0  0  0  0  0  0  0
   -6.3251    2.1129   -1.1383 H   0  0  0  0  0  0  0  0  0  0  0  0
   -5.9239    3.0635    0.1281 H   0  0  0  0  0  0  0  0  0  0  0  0
   -5.8521    1.3779    0.3180 H   0  0  0  0  0  0  0  0  0  0  0  0
   -4.2804    2.3371   -0.9013 C   0  0  0  0  0  0  0  0  0  0  0  0
   -3.5104    1.2803   -0.7476 N   0  0  0  0  0  0  0  0  0  0  0  0
   -3.8627    0.4531   -0.3028 H   0  0  0  0  0  0  0  0  0  0  0  0
   -2.5609    1.2930   -1.0760 H   0  0  0  0  0  0  0  0  0  0  0  0
   -3.8369    3.3404   -1.4529 O   0  0  0  0  0  0  0  0  0  0  0  0
   -0.1041    2.6480    0.0514 C   0  0  0  0  0  0  0  0  0  0  0  0
    0.5614    2.9453    0.7620 H   0  0  0  0  0  0  0  0  0  0  0  0
   -1.0289    2.8994    0.3961 H   0  0  0  0  0  0  0  0  0  0  0  0
    0.0962    3.1687   -0.8851 H   0  0  0  0  0  0  0  0  0  0  0  0
   -0.0494    1.1282    0.0022 C   0  0  0  0  0  0  0  0  0  0  0  0
    1.0897    0.3646   -0.0000 C   0  0  0  0  0  0  0  0  0  0  0  0
    2.0186    0.7261    0.0013 H   0  0  0  0  0  0  0  0  0  0  0  0
    0.6817   -0.8807   -0.0025 N   0  0  0  0  0  0  0  0  0  0  0  0
   -0.6324   -0.9182    0.0003 C   0  0  0  0  0  0  0  0  0  0  0  0
   -1.1885   -1.7525    0.0038 H   0  0  0  0  0  0  0  0  0  0  0  0
   -1.0897    0.3061   -0.0000 N   0  0  0  0  0  0  0  0  0  0  0  0
   -2.0599    0.5602   -0.0024 H   0  0  0  0  0  0  0  0  0  0  0  0
  1  5  1  0
  5  6  1  0
  5  9  2  0
  1  2  1  0
  1  3  1  0
  1  4  1  0
  6  7  1  0
  6  8  1  0
 10 14  1  0
 14 15  2  0
 15 17  1  0
 17 18  2  0
 18 20  1  0
 20 14  1  0
 10 11  1  0
 10 12  1  0
 10 13  1  0
 15 16  1  0
 18 19  1  0
 20 21  1  0
M  END
>  <PDB_ID>  (58) 
pdb2iuj

>  <RESIDUE_NAME>  (58) 
ASN   HID

>  <FRAG_NAME>  (58) 
ACEM   MIMD

>  <FRAG_ATOM_NUM>  (58) 
fragi: 9  fragj: 12

>  <atom.prop.CHAIN_ID>  (58) 
A A A A A A A A A Z Z Z Z Z Z Z Z Z Z Z Z

>  <atom.prop.IS_HEAVY_ATOM>  (58) 
1 0 0 0 1 1 0 0 1 1 0 0 0 1 1 0 1 1 0 1 0

>  <DIFUSE_FUNC_ATOM>  (58) 
n/a

>  <FINAL_SINGLE_POINT_ENERGY>  (58) 
0

>  <NONCOV_INTER_ENERGY_QM>  (58) 
0

>  <FF_Energy>  (58) 
6.63

>  <QM_Energy>  (58) 
12.27

>  <source>  (58) 
ACEM_MIMD

>  <Index>  (58) 
5906

$$$$
ACEM-pdb2iy8-A-ASN-137:MIMD-pdb2iy8-A-HID-198
     RDKit          3D

 21 20  0  0  0  0  0  0  0  0999 V2000
   -3.9127   -3.2069   -1.4853 C   0  0  0  0  0  0  0  0  0  0  0  0
   -4.4564   -3.6041   -2.2167 H   0  0  0  0  0  0  0  0  0  0  0  0
   -3.3886   -2.4324   -1.8237 H   0  0  0  0  0  0  0  0  0  0  0  0
   -4.5865   -2.8544   -0.7043 H   0  0  0  0  0  0  0  0  0  0  0  0
   -2.9443   -4.2606   -0.9756 C   0  0  0  0  0  0  0  0  0  0  0  0
   -1.9385   -3.8222   -0.2211 N   0  0  0  0  0  0  0  0  0  0  0  0
   -1.8590   -2.8462   -0.0153 H   0  0  0  0  0  0  0  0  0  0  0  0
   -1.2656   -4.4665    0.1390 H   0  0  0  0  0  0  0  0  0  0  0  0
   -3.1080   -5.4509   -1.2353 O   0  0  0  0  0  0  0  0  0  0  0  0
   -0.1684    2.6491    0.0597 C   0  0  0  0  0  0  0  0  0  0  0  0
   -0.9444    2.9086   -0.5235 H   0  0  0  0  0  0  0  0  0  0  0  0
    0.6666    3.0690   -0.3098 H   0  0  0  0  0  0  0  0  0  0  0  0
   -0.3387    3.0173    1.0714 H   0  0  0  0  0  0  0  0  0  0  0  0
   -0.0130    1.1681    0.0003 C   0  0  0  0  0  0  0  0  0  0  0  0
    1.0922    0.3866    0.0000 C   0  0  0  0  0  0  0  0  0  0  0  0
    2.0391    0.7001    0.0007 H   0  0  0  0  0  0  0  0  0  0  0  0
    0.6676   -0.9178   -0.0001 N   0  0  0  0  0  0  0  0  0  0  0  0
   -0.6546   -0.9418   -0.0003 C   0  0  0  0  0  0  0  0  0  0  0  0
   -1.2218   -1.7601    0.0005 H   0  0  0  0  0  0  0  0  0  0  0  0
   -1.0922    0.3048   -0.0000 N   0  0  0  0  0  0  0  0  0  0  0  0
   -2.0515    0.5844   -0.0009 H   0  0  0  0  0  0  0  0  0  0  0  0
  1  5  1  0
  5  6  1  0
  5  9  2  0
  1  2  1  0
  1  3  1  0
  1  4  1  0
  6  7  1  0
  6  8  1  0
 10 14  1  0
 14 15  2  0
 15 17  1  0
 17 18  2  0
 18 20  1  0
 20 14  1  0
 10 11  1  0
 10 12  1  0
 10 13  1  0
 15 16  1  0
 18 19  1  0
 20 21  1  0
M  END
>  <PDB_ID>  (59) 
pdb2iy8

>  <RESIDUE_NAME>  (59) 
ASN   HID

>  <FRAG_NAME>  (59) 
ACEM   MIMD

>  <FRAG_ATOM_NUM>  (59) 
fragi: 9  fragj: 12

>  <atom.prop.CHAIN_ID>  (59) 
A A A A A A A A A Z Z Z Z Z Z Z Z Z Z Z Z

>  <atom.prop.IS_HEAVY_ATOM>  (59) 
1 0 0 0 1 1 0 0 1 1 0 0 0 1 1 0 1 1 0 1 0

>  <DIFUSE_FUNC_ATOM>  (59) 
n/a

>  <FINAL_SINGLE_POINT_ENERGY>  (59) 
0

>  <NONCOV_INTER_ENERGY_QM>  (59) 
0

>  <FF_Energy>  (59) 
3.41

>  <QM_Energy>  (59) 
10.2

>  <source>  (59) 
ACEM_MIMD

>  <Index>  (59) 
5988

$$$$
ACEM-pdb2j0y-D-ASN-267:MIMD-pdb2j0y-D-HID-259
     RDKit          3D

 21 20  0  0  0  0  0  0  0  0999 V2000
    0.9220   -5.8455   -0.4765 C   0  0  0  0  0  0  0  0  0  0  0  0
    1.6700   -6.2355    0.0531 H   0  0  0  0  0  0  0  0  0  0  0  0
    1.0975   -5.9540   -1.4510 H   0  0  0  0  0  0  0  0  0  0  0  0
    0.0058   -6.3811   -0.2283 H   0  0  0  0  0  0  0  0  0  0  0  0
    0.8475   -4.3445   -0.1667 C   0  0  0  0  0  0  0  0  0  0  0  0
   -0.3383   -3.7592   -0.3510 N   0  0  0  0  0  0  0  0  0  0  0  0
   -1.1137   -4.3057   -0.6698 H   0  0  0  0  0  0  0  0  0  0  0  0
   -0.4484   -2.7855   -0.1717 H   0  0  0  0  0  0  0  0  0  0  0  0
    1.8320   -3.7301    0.2514 O   0  0  0  0  0  0  0  0  0  0  0  0
   -0.1755    2.6600   -0.0036 C   0  0  0  0  0  0  0  0  0  0  0  0
    0.6592    3.0676    0.3839 H   0  0  0  0  0  0  0  0  0  0  0  0
   -0.9507    2.8961    0.5931 H   0  0  0  0  0  0  0  0  0  0  0  0
   -0.3493    3.0848   -0.9922 H   0  0  0  0  0  0  0  0  0  0  0  0
   -0.0171    1.1688    0.0004 C   0  0  0  0  0  0  0  0  0  0  0  0
    1.0927    0.3908   -0.0000 C   0  0  0  0  0  0  0  0  0  0  0  0
    2.0371    0.7057    0.0011 H   0  0  0  0  0  0  0  0  0  0  0  0
    0.6706   -0.9180   -0.0005 N   0  0  0  0  0  0  0  0  0  0  0  0
   -0.6535   -0.9442    0.0001 C   0  0  0  0  0  0  0  0  0  0  0  0
   -1.2180   -1.7627    0.0006 H   0  0  0  0  0  0  0  0  0  0  0  0
   -1.0927    0.3027    0.0000 N   0  0  0  0  0  0  0  0  0  0  0  0
   -2.0535    0.5795   -0.0016 H   0  0  0  0  0  0  0  0  0  0  0  0
  1  5  1  0
  5  6  1  0
  5  9  2  0
  1  2  1  0
  1  3  1  0
  1  4  1  0
  6  7  1  0
  6  8  1  0
 10 14  1  0
 14 15  2  0
 15 17  1  0
 17 18  2  0
 18 20  1  0
 20 14  1  0
 10 11  1  0
 10 12  1  0
 10 13  1  0
 15 16  1  0
 18 19  1  0
 20 21  1  0
M  END
>  <PDB_ID>  (60) 
pdb2j0y

>  <RESIDUE_NAME>  (60) 
ASN   HID

>  <FRAG_NAME>  (60) 
ACEM   MIMD

>  <FRAG_ATOM_NUM>  (60) 
fragi: 9  fragj: 12

>  <atom.prop.CHAIN_ID>  (60) 
A A A A A A A A A Z Z Z Z Z Z Z Z Z Z Z Z

>  <atom.prop.IS_HEAVY_ATOM>  (60) 
1 0 0 0 1 1 0 0 1 1 0 0 0 1 1 0 1 1 0 1 0

>  <DIFUSE_FUNC_ATOM>  (60) 
n/a

>  <FINAL_SINGLE_POINT_ENERGY>  (60) 
0

>  <NONCOV_INTER_ENERGY_QM>  (60) 
0

>  <FF_Energy>  (60) 
8.54

>  <QM_Energy>  (60) 
17.28

>  <source>  (60) 
ACEM_MIMD

>  <Index>  (60) 
6049

$$$$
ACEM-pdb2j7t-A-ASN-33:MIMD-pdb2j7t-A-HID-102
     RDKit          3D

 21 20  0  0  0  0  0  0  0  0999 V2000
   -0.0903   -4.4804   -3.1143 C   0  0  0  0  0  0  0  0  0  0  0  0
   -0.5337   -5.2910   -3.4596 H   0  0  0  0  0  0  0  0  0  0  0  0
    0.4807   -4.6812   -2.3354 H   0  0  0  0  0  0  0  0  0  0  0  0
    0.5437   -4.0779   -3.9043 H   0  0  0  0  0  0  0  0  0  0  0  0
   -1.1555   -3.4728   -2.6999 C   0  0  0  0  0  0  0  0  0  0  0  0
   -1.2074   -3.1568   -1.4096 N   0  0  0  0  0  0  0  0  0  0  0  0
   -0.5579   -3.5752   -0.7714 H   0  0  0  0  0  0  0  0  0  0  0  0
   -1.8870   -2.5065   -1.0781 H   0  0  0  0  0  0  0  0  0  0  0  0
   -1.9296   -2.9944   -3.5320 O   0  0  0  0  0  0  0  0  0  0  0  0
   -0.1271    2.6546   -0.1357 C   0  0  0  0  0  0  0  0  0  0  0  0
   -0.9183    2.8588   -0.7297 H   0  0  0  0  0  0  0  0  0  0  0  0
    0.7031    2.9931   -0.6010 H   0  0  0  0  0  0  0  0  0  0  0  0
   -0.2455    3.1896    0.8066 H   0  0  0  0  0  0  0  0  0  0  0  0
   -0.0142    1.1653   -0.0026 C   0  0  0  0  0  0  0  0  0  0  0  0
    1.0876    0.3799    0.0000 C   0  0  0  0  0  0  0  0  0  0  0  0
    2.0367    0.6930    0.0033 H   0  0  0  0  0  0  0  0  0  0  0  0
    0.6660   -0.9244    0.0002 N   0  0  0  0  0  0  0  0  0  0  0  0
   -0.6519   -0.9332    0.0024 C   0  0  0  0  0  0  0  0  0  0  0  0
   -1.2275   -1.7512    0.0061 H   0  0  0  0  0  0  0  0  0  0  0  0
   -1.0876    0.3124   -0.0000 N   0  0  0  0  0  0  0  0  0  0  0  0
   -2.0485    0.5898    0.0006 H   0  0  0  0  0  0  0  0  0  0  0  0
  1  5  1  0
  5  6  1  0
  5  9  2  0
  1  2  1  0
  1  3  1  0
  1  4  1  0
  6  7  1  0
  6  8  1  0
 10 14  1  0
 14 15  2  0
 15 17  1  0
 17 18  2  0
 18 20  1  0
 20 14  1  0
 10 11  1  0
 10 12  1  0
 10 13  1  0
 15 16  1  0
 18 19  1  0
 20 21  1  0
M  END
>  <PDB_ID>  (61) 
pdb2j7t

>  <RESIDUE_NAME>  (61) 
ASN   HID

>  <FRAG_NAME>  (61) 
ACEM   MIMD

>  <FRAG_ATOM_NUM>  (61) 
fragi: 9  fragj: 12

>  <atom.prop.CHAIN_ID>  (61) 
A A A A A A A A A Z Z Z Z Z Z Z Z Z Z Z Z

>  <atom.prop.IS_HEAVY_ATOM>  (61) 
1 0 0 0 1 1 0 0 1 1 0 0 0 1 1 0 1 1 0 1 0

>  <DIFUSE_FUNC_ATOM>  (61) 
n/a

>  <FINAL_SINGLE_POINT_ENERGY>  (61) 
0

>  <NONCOV_INTER_ENERGY_QM>  (61) 
0

>  <FF_Energy>  (61) 
4.96

>  <QM_Energy>  (61) 
10.65

>  <source>  (61) 
ACEM_MIMD

>  <Index>  (61) 
6183

$$$$
ACEM-pdb2j8m-B-GLN-147:MIMD-pdb2j8m-A-HID-117
     RDKit          3D

 21 20  0  0  0  0  0  0  0  0999 V2000
   -3.0955   -3.9532    0.1186 C   0  0  0  0  0  0  0  0  0  0  0  0
   -3.1581   -4.0828    1.1073 H   0  0  0  0  0  0  0  0  0  0  0  0
   -3.7410   -4.5629   -0.3404 H   0  0  0  0  0  0  0  0  0  0  0  0
   -3.3588   -2.9220   -0.1173 H   0  0  0  0  0  0  0  0  0  0  0  0
   -1.6921   -4.3101   -0.3264 C   0  0  0  0  0  0  0  0  0  0  0  0
   -0.7201   -3.5013    0.0789 N   0  0  0  0  0  0  0  0  0  0  0  0
    0.2500   -3.6850   -0.1690 H   0  0  0  0  0  0  0  0  0  0  0  0
   -0.9596   -2.6891    0.6442 H   0  0  0  0  0  0  0  0  0  0  0  0
   -1.4839   -5.2989   -1.0319 O   0  0  0  0  0  0  0  0  0  0  0  0
   -0.1783    2.6541    0.0006 C   0  0  0  0  0  0  0  0  0  0  0  0
    0.1697    3.0124    0.8748 H   0  0  0  0  0  0  0  0  0  0  0  0
   -1.1603    2.8653   -0.0610 H   0  0  0  0  0  0  0  0  0  0  0  0
    0.3416    3.1517   -0.8180 H   0  0  0  0  0  0  0  0  0  0  0  0
   -0.0156    1.1670    0.0024 C   0  0  0  0  0  0  0  0  0  0  0  0
    1.0909    0.3891    0.0000 C   0  0  0  0  0  0  0  0  0  0  0  0
    2.0375    0.7022    0.0001 H   0  0  0  0  0  0  0  0  0  0  0  0
    0.6676   -0.9182   -0.0012 N   0  0  0  0  0  0  0  0  0  0  0  0
   -0.6520   -0.9421   -0.0012 C   0  0  0  0  0  0  0  0  0  0  0  0
   -1.2193   -1.7610   -0.0006 H   0  0  0  0  0  0  0  0  0  0  0  0
   -1.0909    0.3043   -0.0000 N   0  0  0  0  0  0  0  0  0  0  0  0
   -2.0514    0.5809   -0.0009 H   0  0  0  0  0  0  0  0  0  0  0  0
  1  5  1  0
  5  6  1  0
  5  9  2  0
  1  2  1  0
  1  3  1  0
  1  4  1  0
  6  7  1  0
  6  8  1  0
 10 14  1  0
 14 15  2  0
 15 17  1  0
 17 18  2  0
 18 20  1  0
 20 14  1  0
 10 11  1  0
 10 12  1  0
 10 13  1  0
 15 16  1  0
 18 19  1  0
 20 21  1  0
M  END
>  <PDB_ID>  (62) 
pdb2j8m

>  <RESIDUE_NAME>  (62) 
GLN   HID

>  <FRAG_NAME>  (62) 
ACEM   MIMD

>  <FRAG_ATOM_NUM>  (62) 
fragi: 9  fragj: 12

>  <atom.prop.CHAIN_ID>  (62) 
A A A A A A A A A Z Z Z Z Z Z Z Z Z Z Z Z

>  <atom.prop.IS_HEAVY_ATOM>  (62) 
1 0 0 0 1 1 0 0 1 1 0 0 0 1 1 0 1 1 0 1 0

>  <DIFUSE_FUNC_ATOM>  (62) 
n/a

>  <FINAL_SINGLE_POINT_ENERGY>  (62) 
0

>  <NONCOV_INTER_ENERGY_QM>  (62) 
0

>  <FF_Energy>  (62) 
18.47

>  <QM_Energy>  (62) 
23.89

>  <source>  (62) 
ACEM_MIMD

>  <Index>  (62) 
6195

$$$$
ACEM-pdb1ijy-A-ASN-28:MIMD-pdb1ijy-A-HID-32
     RDKit          3D

 21 20  0  0  0  0  0  0  0  0999 V2000
   -3.8412    3.2066    3.3362 C   0  0  0  0  0  0  0  0  0  0  0  0
   -4.4285    2.5823    3.8455 H   0  0  0  0  0  0  0  0  0  0  0  0
   -4.3844    3.7353    2.6889 H   0  0  0  0  0  0  0  0  0  0  0  0
   -3.3872    3.9002    4.0440 H   0  0  0  0  0  0  0  0  0  0  0  0
   -2.8190    2.3922    2.5640 C   0  0  0  0  0  0  0  0  0  0  0  0
   -3.2297    1.8646    1.4118 N   0  0  0  0  0  0  0  0  0  0  0  0
   -4.1678    2.0231    1.1001 H   0  0  0  0  0  0  0  0  0  0  0  0
   -2.6045    1.3142    0.8620 H   0  0  0  0  0  0  0  0  0  0  0  0
   -1.6822    2.2195    3.0058 O   0  0  0  0  0  0  0  0  0  0  0  0
   -0.1804    2.6531   -0.0399 C   0  0  0  0  0  0  0  0  0  0  0  0
   -1.0412    2.8902    0.4256 H   0  0  0  0  0  0  0  0  0  0  0  0
   -0.2510    2.9389   -1.0025 H   0  0  0  0  0  0  0  0  0  0  0  0
    0.6372    3.1990    0.4309 H   0  0  0  0  0  0  0  0  0  0  0  0
   -0.0175    1.1672   -0.0013 C   0  0  0  0  0  0  0  0  0  0  0  0
    1.0918    0.3890    0.0000 C   0  0  0  0  0  0  0  0  0  0  0  0
    2.0362    0.7039    0.0014 H   0  0  0  0  0  0  0  0  0  0  0  0
    0.6689   -0.9174    0.0003 N   0  0  0  0  0  0  0  0  0  0  0  0
   -0.6514   -0.9424    0.0010 C   0  0  0  0  0  0  0  0  0  0  0  0
   -1.2181   -1.7616    0.0030 H   0  0  0  0  0  0  0  0  0  0  0  0
   -1.0918    0.3036   -0.0000 N   0  0  0  0  0  0  0  0  0  0  0  0
   -2.0531    0.5792   -0.0009 H   0  0  0  0  0  0  0  0  0  0  0  0
  1  5  1  0
  5  6  1  0
  5  9  2  0
  1  2  1  0
  1  3  1  0
  1  4  1  0
  6  7  1  0
  6  8  1  0
 10 14  1  0
 14 15  2  0
 15 17  1  0
 17 18  2  0
 18 20  1  0
 20 14  1  0
 10 11  1  0
 10 12  1  0
 10 13  1  0
 15 16  1  0
 18 19  1  0
 20 21  1  0
M  END
>  <PDB_ID>  (63) 
pdb1ijy

>  <RESIDUE_NAME>  (63) 
ASN   HID

>  <FRAG_NAME>  (63) 
ACEM   MIMD

>  <FRAG_ATOM_NUM>  (63) 
fragi: 9  fragj: 12

>  <atom.prop.CHAIN_ID>  (63) 
A A A A A A A A A Z Z Z Z Z Z Z Z Z Z Z Z

>  <atom.prop.IS_HEAVY_ATOM>  (63) 
1 0 0 0 1 1 0 0 1 1 0 0 0 1 1 0 1 1 0 1 0

>  <DIFUSE_FUNC_ATOM>  (63) 
n/a

>  <FINAL_SINGLE_POINT_ENERGY>  (63) 
0

>  <NONCOV_INTER_ENERGY_QM>  (63) 
0

>  <FF_Energy>  (63) 
6.45

>  <QM_Energy>  (63) 
12.83

>  <source>  (63) 
ACEM_MIMD

>  <Index>  (63) 
6203

$$$$
ACEM-pdb1ijy-B-ASN-28:MIMD-pdb1ijy-B-HID-32
     RDKit          3D

 21 20  0  0  0  0  0  0  0  0999 V2000
   -3.8628    3.2421    3.2920 C   0  0  0  0  0  0  0  0  0  0  0  0
   -4.4863    2.6458    3.7916 H   0  0  0  0  0  0  0  0  0  0  0  0
   -4.3701    3.7806    2.6232 H   0  0  0  0  0  0  0  0  0  0  0  0
   -3.4066    3.9294    4.0044 H   0  0  0  0  0  0  0  0  0  0  0  0
   -2.8496    2.3831    2.5593 C   0  0  0  0  0  0  0  0  0  0  0  0
   -3.2696    1.8078    1.4382 N   0  0  0  0  0  0  0  0  0  0  0  0
   -4.2059    1.9572    1.1182 H   0  0  0  0  0  0  0  0  0  0  0  0
   -2.6502    1.2245    0.9117 H   0  0  0  0  0  0  0  0  0  0  0  0
   -1.7117    2.2203    3.0007 O   0  0  0  0  0  0  0  0  0  0  0  0
   -0.1820    2.6542   -0.0392 C   0  0  0  0  0  0  0  0  0  0  0  0
   -1.0344    2.8913    0.4405 H   0  0  0  0  0  0  0  0  0  0  0  0
   -0.2680    2.9389   -1.0008 H   0  0  0  0  0  0  0  0  0  0  0  0
    0.6446    3.1982    0.4179 H   0  0  0  0  0  0  0  0  0  0  0  0
   -0.0187    1.1675   -0.0019 C   0  0  0  0  0  0  0  0  0  0  0  0
    1.0910    0.3908    0.0000 C   0  0  0  0  0  0  0  0  0  0  0  0
    2.0352    0.7068    0.0010 H   0  0  0  0  0  0  0  0  0  0  0  0
    0.6701   -0.9172    0.0008 N   0  0  0  0  0  0  0  0  0  0  0  0
   -0.6513   -0.9433    0.0011 C   0  0  0  0  0  0  0  0  0  0  0  0
   -1.2171   -1.7619    0.0036 H   0  0  0  0  0  0  0  0  0  0  0  0
   -1.0910    0.3022    0.0000 N   0  0  0  0  0  0  0  0  0  0  0  0
   -2.0526    0.5777   -0.0005 H   0  0  0  0  0  0  0  0  0  0  0  0
  1  5  1  0
  5  6  1  0
  5  9  2  0
  1  2  1  0
  1  3  1  0
  1  4  1  0
  6  7  1  0
  6  8  1  0
 10 14  1  0
 14 15  2  0
 15 17  1  0
 17 18  2  0
 18 20  1  0
 20 14  1  0
 10 11  1  0
 10 12  1  0
 10 13  1  0
 15 16  1  0
 18 19  1  0
 20 21  1  0
M  END
>  <PDB_ID>  (64) 
pdb1ijy

>  <RESIDUE_NAME>  (64) 
ASN   HID

>  <FRAG_NAME>  (64) 
ACEM   MIMD

>  <FRAG_ATOM_NUM>  (64) 
fragi: 9  fragj: 12

>  <atom.prop.CHAIN_ID>  (64) 
A A A A A A A A A Z Z Z Z Z Z Z Z Z Z Z Z

>  <atom.prop.IS_HEAVY_ATOM>  (64) 
1 0 0 0 1 1 0 0 1 1 0 0 0 1 1 0 1 1 0 1 0

>  <DIFUSE_FUNC_ATOM>  (64) 
n/a

>  <FINAL_SINGLE_POINT_ENERGY>  (64) 
0

>  <NONCOV_INTER_ENERGY_QM>  (64) 
0

>  <FF_Energy>  (64) 
6.14

>  <QM_Energy>  (64) 
12.22

>  <source>  (64) 
ACEM_MIMD

>  <Index>  (64) 
6204

$$$$
ACEM-pdb2jhp-A-ASN-41:MIMD-pdb2jhp-A-HID-5
     RDKit          3D

 21 20  0  0  0  0  0  0  0  0999 V2000
   -0.3744   -5.9210    0.4590 C   0  0  0  0  0  0  0  0  0  0  0  0
   -1.0653   -6.6357    0.5062 H   0  0  0  0  0  0  0  0  0  0  0  0
    0.3548   -6.1014    1.1128 H   0  0  0  0  0  0  0  0  0  0  0  0
    0.0565   -5.9277   -0.5422 H   0  0  0  0  0  0  0  0  0  0  0  0
   -1.0324   -4.5862    0.8224 C   0  0  0  0  0  0  0  0  0  0  0  0
   -1.0789   -3.6678   -0.1395 N   0  0  0  0  0  0  0  0  0  0  0  0
   -0.6997   -3.8764   -1.0426 H   0  0  0  0  0  0  0  0  0  0  0  0
   -1.4901   -2.7760    0.0378 H   0  0  0  0  0  0  0  0  0  0  0  0
   -1.4876   -4.3862    1.9481 O   0  0  0  0  0  0  0  0  0  0  0  0
   -0.1810    2.6585    0.0256 C   0  0  0  0  0  0  0  0  0  0  0  0
   -0.9139    2.8969   -0.6217 H   0  0  0  0  0  0  0  0  0  0  0  0
    0.6777    3.0698   -0.3003 H   0  0  0  0  0  0  0  0  0  0  0  0
   -0.4231    3.0692    1.0058 H   0  0  0  0  0  0  0  0  0  0  0  0
   -0.0179    1.1692    0.0200 C   0  0  0  0  0  0  0  0  0  0  0  0
    1.0937    0.3895    0.0000 C   0  0  0  0  0  0  0  0  0  0  0  0
    2.0366    0.7048   -0.0034 H   0  0  0  0  0  0  0  0  0  0  0  0
    0.6702   -0.9182   -0.0116 N   0  0  0  0  0  0  0  0  0  0  0  0
   -0.6523   -0.9434   -0.0084 C   0  0  0  0  0  0  0  0  0  0  0  0
   -1.2177   -1.7629   -0.0106 H   0  0  0  0  0  0  0  0  0  0  0  0
   -1.0937    0.3030   -0.0000 N   0  0  0  0  0  0  0  0  0  0  0  0
   -2.0535    0.5789   -0.0080 H   0  0  0  0  0  0  0  0  0  0  0  0
  1  5  1  0
  5  6  1  0
  5  9  2  0
  1  2  1  0
  1  3  1  0
  1  4  1  0
  6  7  1  0
  6  8  1  0
 10 14  1  0
 14 15  2  0
 15 17  1  0
 17 18  2  0
 18 20  1  0
 20 14  1  0
 10 11  1  0
 10 12  1  0
 10 13  1  0
 15 16  1  0
 18 19  1  0
 20 21  1  0
M  END
>  <PDB_ID>  (65) 
pdb2jhp

>  <RESIDUE_NAME>  (65) 
ASN   HID

>  <FRAG_NAME>  (65) 
ACEM   MIMD

>  <FRAG_ATOM_NUM>  (65) 
fragi: 9  fragj: 12

>  <atom.prop.CHAIN_ID>  (65) 
A A A A A A A A A Z Z Z Z Z Z Z Z Z Z Z Z

>  <atom.prop.IS_HEAVY_ATOM>  (65) 
1 0 0 0 1 1 0 0 1 1 0 0 0 1 1 0 1 1 0 1 0

>  <DIFUSE_FUNC_ATOM>  (65) 
n/a

>  <FINAL_SINGLE_POINT_ENERGY>  (65) 
0

>  <NONCOV_INTER_ENERGY_QM>  (65) 
0

>  <FF_Energy>  (65) 
10.18

>  <QM_Energy>  (65) 
24.95

>  <source>  (65) 
ACEM_MIMD

>  <Index>  (65) 
6323

$$$$
ACEM-pdb1ixx-D-GLN-122:MIMD-pdb1ixx-D-HID-12
     RDKit          3D

 21 20  0  0  0  0  0  0  0  0999 V2000
    0.6089   -1.6790    3.4882 C   0  0  0  0  0  0  0  0  0  0  0  0
    0.3746   -1.7528    4.4565 H   0  0  0  0  0  0  0  0  0  0  0  0
   -0.0785   -1.1292    3.0171 H   0  0  0  0  0  0  0  0  0  0  0  0
    1.5739   -1.1799    3.4003 H   0  0  0  0  0  0  0  0  0  0  0  0
    0.6116   -3.0755    2.8832 C   0  0  0  0  0  0  0  0  0  0  0  0
    0.4168   -3.1553    1.5736 N   0  0  0  0  0  0  0  0  0  0  0  0
    0.4198   -4.0534    1.0987 H   0  0  0  0  0  0  0  0  0  0  0  0
    0.2620   -2.2969    1.0461 H   0  0  0  0  0  0  0  0  0  0  0  0
    0.7760   -4.0727    3.5928 O   0  0  0  0  0  0  0  0  0  0  0  0
   -0.1778    2.6498   -0.0074 C   0  0  0  0  0  0  0  0  0  0  0  0
   -0.8464    2.8929   -0.7228 H   0  0  0  0  0  0  0  0  0  0  0  0
    0.7084    3.0639   -0.2539 H   0  0  0  0  0  0  0  0  0  0  0  0
   -0.5095    3.0687    0.9427 H   0  0  0  0  0  0  0  0  0  0  0  0
   -0.0177    1.1666    0.0019 C   0  0  0  0  0  0  0  0  0  0  0  0
    1.0911    0.3910    0.0000 C   0  0  0  0  0  0  0  0  0  0  0  0
    2.0360    0.7058   -0.0003 H   0  0  0  0  0  0  0  0  0  0  0  0
    0.6686   -0.9164   -0.0007 N   0  0  0  0  0  0  0  0  0  0  0  0
   -0.6509   -0.9433   -0.0012 C   0  0  0  0  0  0  0  0  0  0  0  0
   -1.2173   -1.7626   -0.0013 H   0  0  0  0  0  0  0  0  0  0  0  0
   -1.0911    0.3020   -0.0000 N   0  0  0  0  0  0  0  0  0  0  0  0
   -2.0526    0.5772   -0.0011 H   0  0  0  0  0  0  0  0  0  0  0  0
  1  5  1  0
  5  6  1  0
  5  9  2  0
  1  2  1  0
  1  3  1  0
  1  4  1  0
  6  7  1  0
  6  8  1  0
 10 14  1  0
 14 15  2  0
 15 17  1  0
 17 18  2  0
 18 20  1  0
 20 14  1  0
 10 11  1  0
 10 12  1  0
 10 13  1  0
 15 16  1  0
 18 19  1  0
 20 21  1  0
M  END
>  <PDB_ID>  (66) 
pdb1ixx

>  <RESIDUE_NAME>  (66) 
GLN   HID

>  <FRAG_NAME>  (66) 
ACEM   MIMD

>  <FRAG_ATOM_NUM>  (66) 
fragi: 9  fragj: 12

>  <atom.prop.CHAIN_ID>  (66) 
A A A A A A A A A Z Z Z Z Z Z Z Z Z Z Z Z

>  <atom.prop.IS_HEAVY_ATOM>  (66) 
1 0 0 0 1 1 0 0 1 1 0 0 0 1 1 0 1 1 0 1 0

>  <DIFUSE_FUNC_ATOM>  (66) 
n/a

>  <FINAL_SINGLE_POINT_ENERGY>  (66) 
0

>  <NONCOV_INTER_ENERGY_QM>  (66) 
0

>  <FF_Energy>  (66) 
-3.31

>  <QM_Energy>  (66) 
1.71

>  <source>  (66) 
ACEM_MIMD

>  <Index>  (66) 
6448

$$$$
ACEM-pdb2nqo-C-ASN-97:MIMD-pdb2nqo-C-HID-91
     RDKit          3D

 21 20  0  0  0  0  0  0  0  0999 V2000
   -5.4462    2.0353    1.5942 C   0  0  0  0  0  0  0  0  0  0  0  0
   -6.3498    1.6549    1.7638 H   0  0  0  0  0  0  0  0  0  0  0  0
   -5.5208    2.8904    1.0904 H   0  0  0  0  0  0  0  0  0  0  0  0
   -4.9722    2.2406    2.5541 H   0  0  0  0  0  0  0  0  0  0  0  0
   -4.6541    1.0497    0.7627 C   0  0  0  0  0  0  0  0  0  0  0  0
   -3.3858    1.3567    0.5198 N   0  0  0  0  0  0  0  0  0  0  0  0
   -3.0012    2.2059    0.8899 H   0  0  0  0  0  0  0  0  0  0  0  0
   -2.8153    0.7477   -0.0269 H   0  0  0  0  0  0  0  0  0  0  0  0
   -5.1795    0.0205    0.3426 O   0  0  0  0  0  0  0  0  0  0  0  0
   -0.1775    2.6594    0.0685 C   0  0  0  0  0  0  0  0  0  0  0  0
   -0.9076    2.9263   -0.5658 H   0  0  0  0  0  0  0  0  0  0  0  0
    0.6828    3.0820   -0.2304 H   0  0  0  0  0  0  0  0  0  0  0  0
   -0.4228    3.0223    1.0667 H   0  0  0  0  0  0  0  0  0  0  0  0
   -0.0181    1.1690    0.0027 C   0  0  0  0  0  0  0  0  0  0  0  0
    1.0914    0.3904    0.0000 C   0  0  0  0  0  0  0  0  0  0  0  0
    2.0365    0.7056   -0.0000 H   0  0  0  0  0  0  0  0  0  0  0  0
    0.6699   -0.9186   -0.0010 N   0  0  0  0  0  0  0  0  0  0  0  0
   -0.6519   -0.9438   -0.0017 C   0  0  0  0  0  0  0  0  0  0  0  0
   -1.2176   -1.7625   -0.0021 H   0  0  0  0  0  0  0  0  0  0  0  0
   -1.0914    0.3029   -0.0000 N   0  0  0  0  0  0  0  0  0  0  0  0
   -2.0530    0.5786   -0.0011 H   0  0  0  0  0  0  0  0  0  0  0  0
  1  5  1  0
  5  6  1  0
  5  9  2  0
  1  2  1  0
  1  3  1  0
  1  4  1  0
  6  7  1  0
  6  8  1  0
 10 14  1  0
 14 15  2  0
 15 17  1  0
 17 18  2  0
 18 20  1  0
 20 14  1  0
 10 11  1  0
 10 12  1  0
 10 13  1  0
 15 16  1  0
 18 19  1  0
 20 21  1  0
M  END
>  <PDB_ID>  (67) 
pdb2nqo

>  <RESIDUE_NAME>  (67) 
ASN   HID

>  <FRAG_NAME>  (67) 
ACEM   MIMD

>  <FRAG_ATOM_NUM>  (67) 
fragi: 9  fragj: 12

>  <atom.prop.CHAIN_ID>  (67) 
A A A A A A A A A Z Z Z Z Z Z Z Z Z Z Z Z

>  <atom.prop.IS_HEAVY_ATOM>  (67) 
1 0 0 0 1 1 0 0 1 1 0 0 0 1 1 0 1 1 0 1 0

>  <DIFUSE_FUNC_ATOM>  (67) 
n/a

>  <FINAL_SINGLE_POINT_ENERGY>  (67) 
0

>  <NONCOV_INTER_ENERGY_QM>  (67) 
0

>  <FF_Energy>  (67) 
25.43

>  <QM_Energy>  (67) 
60.52

>  <source>  (67) 
ACEM_MIMD

>  <Index>  (67) 
6513

$$$$
ACEM-pdb2nr9-A-ASN-69:MIMD-pdb2nr9-A-HID-60
     RDKit          3D

 21 20  0  0  0  0  0  0  0  0999 V2000
   -2.6333   -3.4103    1.4837 C   0  0  0  0  0  0  0  0  0  0  0  0
   -2.3598   -2.5264    1.8559 H   0  0  0  0  0  0  0  0  0  0  0  0
   -1.8304   -3.9082    1.1634 H   0  0  0  0  0  0  0  0  0  0  0  0
   -3.1001   -3.9895    2.2804 H   0  0  0  0  0  0  0  0  0  0  0  0
   -3.5599   -3.1805    0.3175 C   0  0  0  0  0  0  0  0  0  0  0  0
   -3.0233   -2.6446   -0.7687 N   0  0  0  0  0  0  0  0  0  0  0  0
   -2.0462   -2.4197   -0.7862 H   0  0  0  0  0  0  0  0  0  0  0  0
   -3.5889   -2.4627   -1.5730 H   0  0  0  0  0  0  0  0  0  0  0  0
   -4.7610   -3.4209    0.4121 O   0  0  0  0  0  0  0  0  0  0  0  0
   -0.1715    2.6576    0.0474 C   0  0  0  0  0  0  0  0  0  0  0  0
    0.5400    3.0206    0.6547 H   0  0  0  0  0  0  0  0  0  0  0  0
   -1.0705    2.8614    0.4424 H   0  0  0  0  0  0  0  0  0  0  0  0
   -0.0925    3.1461   -0.9238 H   0  0  0  0  0  0  0  0  0  0  0  0
   -0.0151    1.1685   -0.0261 C   0  0  0  0  0  0  0  0  0  0  0  0
    1.0928    0.3888    0.0000 C   0  0  0  0  0  0  0  0  0  0  0  0
    2.0373    0.7019    0.0100 H   0  0  0  0  0  0  0  0  0  0  0  0
    0.6684   -0.9202    0.0105 N   0  0  0  0  0  0  0  0  0  0  0  0
   -0.6533   -0.9421    0.0156 C   0  0  0  0  0  0  0  0  0  0  0  0
   -1.2208   -1.7600    0.0292 H   0  0  0  0  0  0  0  0  0  0  0  0
   -1.0928    0.3049   -0.0000 N   0  0  0  0  0  0  0  0  0  0  0  0
   -2.0521    0.5825    0.0059 H   0  0  0  0  0  0  0  0  0  0  0  0
  1  5  1  0
  5  6  1  0
  5  9  2  0
  1  2  1  0
  1  3  1  0
  1  4  1  0
  6  7  1  0
  6  8  1  0
 10 14  1  0
 14 15  2  0
 15 17  1  0
 17 18  2  0
 18 20  1  0
 20 14  1  0
 10 11  1  0
 10 12  1  0
 10 13  1  0
 15 16  1  0
 18 19  1  0
 20 21  1  0
M  END
>  <PDB_ID>  (68) 
pdb2nr9

>  <RESIDUE_NAME>  (68) 
ASN   HID

>  <FRAG_NAME>  (68) 
ACEM   MIMD

>  <FRAG_ATOM_NUM>  (68) 
fragi: 9  fragj: 12

>  <atom.prop.CHAIN_ID>  (68) 
A A A A A A A A A Z Z Z Z Z Z Z Z Z Z Z Z

>  <atom.prop.IS_HEAVY_ATOM>  (68) 
1 0 0 0 1 1 0 0 1 1 0 0 0 1 1 0 1 1 0 1 0

>  <DIFUSE_FUNC_ATOM>  (68) 
n/a

>  <FINAL_SINGLE_POINT_ENERGY>  (68) 
0

>  <NONCOV_INTER_ENERGY_QM>  (68) 
0

>  <FF_Energy>  (68) 
1.78

>  <QM_Energy>  (68) 
8.14

>  <source>  (68) 
ACEM_MIMD

>  <Index>  (68) 
6527

$$$$
ACEM-pdb2nxf-A-GLN-57:MIMD-pdb2nxf-A-HID-92
     RDKit          3D

 21 20  0  0  0  0  0  0  0  0999 V2000
   -4.2586    0.8627   -1.7494 C   0  0  0  0  0  0  0  0  0  0  0  0
   -4.1791   -0.0731   -1.4017 H   0  0  0  0  0  0  0  0  0  0  0  0
   -3.3811    1.1432   -2.1441 H   0  0  0  0  0  0  0  0  0  0  0  0
   -5.0213    0.8881   -2.5276 H   0  0  0  0  0  0  0  0  0  0  0  0
   -4.5607    1.7868   -0.5567 C   0  0  0  0  0  0  0  0  0  0  0  0
   -3.5941    1.8733    0.3500 N   0  0  0  0  0  0  0  0  0  0  0  0
   -3.7126    2.4775    1.1653 H   0  0  0  0  0  0  0  0  0  0  0  0
   -2.7455    1.3355    0.2237 H   0  0  0  0  0  0  0  0  0  0  0  0
   -5.6360    2.3886   -0.4396 O   0  0  0  0  0  0  0  0  0  0  0  0
   -0.1571    2.6557   -0.0316 C   0  0  0  0  0  0  0  0  0  0  0  0
    0.7253    3.0637    0.2245 H   0  0  0  0  0  0  0  0  0  0  0  0
   -0.8438    2.9170    0.6540 H   0  0  0  0  0  0  0  0  0  0  0  0
   -0.4601    3.0526   -1.0005 H   0  0  0  0  0  0  0  0  0  0  0  0
   -0.0131    1.1660   -0.0125 C   0  0  0  0  0  0  0  0  0  0  0  0
    1.0916    0.3858   -0.0000 C   0  0  0  0  0  0  0  0  0  0  0  0
    2.0381    0.6973    0.0082 H   0  0  0  0  0  0  0  0  0  0  0  0
    0.6664   -0.9221    0.0010 N   0  0  0  0  0  0  0  0  0  0  0  0
   -0.6533   -0.9399    0.0115 C   0  0  0  0  0  0  0  0  0  0  0  0
   -1.2259   -1.7555    0.0269 H   0  0  0  0  0  0  0  0  0  0  0  0
   -1.0916    0.3103    0.0000 N   0  0  0  0  0  0  0  0  0  0  0  0
   -2.0500    0.5877   -0.0005 H   0  0  0  0  0  0  0  0  0  0  0  0
  1  5  1  0
  5  6  1  0
  5  9  2  0
  1  2  1  0
  1  3  1  0
  1  4  1  0
  6  7  1  0
  6  8  1  0
 10 14  1  0
 14 15  2  0
 15 17  1  0
 17 18  2  0
 18 20  1  0
 20 14  1  0
 10 11  1  0
 10 12  1  0
 10 13  1  0
 15 16  1  0
 18 19  1  0
 20 21  1  0
M  END
>  <PDB_ID>  (69) 
pdb2nxf

>  <RESIDUE_NAME>  (69) 
GLN   HID

>  <FRAG_NAME>  (69) 
ACEM   MIMD

>  <FRAG_ATOM_NUM>  (69) 
fragi: 9  fragj: 12

>  <atom.prop.CHAIN_ID>  (69) 
A A A A A A A A A Z Z Z Z Z Z Z Z Z Z Z Z

>  <atom.prop.IS_HEAVY_ATOM>  (69) 
1 0 0 0 1 1 0 0 1 1 0 0 0 1 1 0 1 1 0 1 0

>  <DIFUSE_FUNC_ATOM>  (69) 
n/a

>  <FINAL_SINGLE_POINT_ENERGY>  (69) 
0

>  <NONCOV_INTER_ENERGY_QM>  (69) 
0

>  <FF_Energy>  (69) 
8.79

>  <QM_Energy>  (69) 
22.06

>  <source>  (69) 
ACEM_MIMD

>  <Index>  (69) 
6628

$$$$
ACEM-pdb1jfa-B-ASN-225:MIMD-pdb1jfa-B-HID-299
     RDKit          3D

 21 20  0  0  0  0  0  0  0  0999 V2000
   -0.2446   -4.4994    1.9241 C   0  0  0  0  0  0  0  0  0  0  0  0
    0.5433   -4.3531    1.3351 H   0  0  0  0  0  0  0  0  0  0  0  0
   -0.1490   -5.3533    2.4249 H   0  0  0  0  0  0  0  0  0  0  0  0
   -0.2963   -3.6814    2.6427 H   0  0  0  0  0  0  0  0  0  0  0  0
   -1.4890   -4.5850    1.0538 C   0  0  0  0  0  0  0  0  0  0  0  0
   -1.5921   -3.6844    0.0902 N   0  0  0  0  0  0  0  0  0  0  0  0
   -0.8723   -2.9995   -0.0401 H   0  0  0  0  0  0  0  0  0  0  0  0
   -2.3903   -3.6829   -0.5154 H   0  0  0  0  0  0  0  0  0  0  0  0
   -2.3535   -5.4465    1.2522 O   0  0  0  0  0  0  0  0  0  0  0  0
   -0.1705    2.6566   -0.0196 C   0  0  0  0  0  0  0  0  0  0  0  0
    0.6802    3.0695    0.3281 H   0  0  0  0  0  0  0  0  0  0  0  0
   -0.9203    2.9042    0.6061 H   0  0  0  0  0  0  0  0  0  0  0  0
   -0.3853    3.0724   -1.0040 H   0  0  0  0  0  0  0  0  0  0  0  0
   -0.0142    1.1677   -0.0029 C   0  0  0  0  0  0  0  0  0  0  0  0
    1.0918    0.3866   -0.0000 C   0  0  0  0  0  0  0  0  0  0  0  0
    2.0377    0.7000    0.0020 H   0  0  0  0  0  0  0  0  0  0  0  0
    0.6677   -0.9192    0.0013 N   0  0  0  0  0  0  0  0  0  0  0  0
   -0.6535   -0.9401    0.0015 C   0  0  0  0  0  0  0  0  0  0  0  0
   -1.2213   -1.7588    0.0038 H   0  0  0  0  0  0  0  0  0  0  0  0
   -1.0918    0.3050    0.0000 N   0  0  0  0  0  0  0  0  0  0  0  0
   -2.0511    0.5836    0.0003 H   0  0  0  0  0  0  0  0  0  0  0  0
  1  5  1  0
  5  6  1  0
  5  9  2  0
  1  2  1  0
  1  3  1  0
  1  4  1  0
  6  7  1  0
  6  8  1  0
 10 14  1  0
 14 15  2  0
 15 17  1  0
 17 18  2  0
 18 20  1  0
 20 14  1  0
 10 11  1  0
 10 12  1  0
 10 13  1  0
 15 16  1  0
 18 19  1  0
 20 21  1  0
M  END
>  <PDB_ID>  (70) 
pdb1jfa

>  <RESIDUE_NAME>  (70) 
ASN   HID

>  <FRAG_NAME>  (70) 
ACEM   MIMD

>  <FRAG_ATOM_NUM>  (70) 
fragi: 9  fragj: 12

>  <atom.prop.CHAIN_ID>  (70) 
A A A A A A A A A Z Z Z Z Z Z Z Z Z Z Z Z

>  <atom.prop.IS_HEAVY_ATOM>  (70) 
1 0 0 0 1 1 0 0 1 1 0 0 0 1 1 0 1 1 0 1 0

>  <DIFUSE_FUNC_ATOM>  (70) 
n/a

>  <FINAL_SINGLE_POINT_ENERGY>  (70) 
0

>  <NONCOV_INTER_ENERGY_QM>  (70) 
0

>  <FF_Energy>  (70) 
2.99

>  <QM_Energy>  (70) 
10.28

>  <source>  (70) 
ACEM_MIMD

>  <Index>  (70) 
6834

$$$$
ACEM-pdb1jln-A-ASN-311:MIMD-pdb1jln-A-HID-307
     RDKit          3D

 21 20  0  0  0  0  0  0  0  0999 V2000
   -5.6179    0.0732    2.5909 C   0  0  0  0  0  0  0  0  0  0  0  0
   -5.0391   -0.2027    3.3500 H   0  0  0  0  0  0  0  0  0  0  0  0
   -6.1992   -0.6804    2.3045 H   0  0  0  0  0  0  0  0  0  0  0  0
   -6.2574    0.8894    2.9270 H   0  0  0  0  0  0  0  0  0  0  0  0
   -4.7388    0.4804    1.4301 C   0  0  0  0  0  0  0  0  0  0  0  0
   -3.4958    0.0079    1.4205 N   0  0  0  0  0  0  0  0  0  0  0  0
   -3.1924   -0.5938    2.1642 H   0  0  0  0  0  0  0  0  0  0  0  0
   -2.8709    0.2474    0.6829 H   0  0  0  0  0  0  0  0  0  0  0  0
   -5.1813    1.2125    0.5463 O   0  0  0  0  0  0  0  0  0  0  0  0
   -0.1775    2.6518    0.0514 C   0  0  0  0  0  0  0  0  0  0  0  0
   -1.0573    2.8935   -0.3810 H   0  0  0  0  0  0  0  0  0  0  0  0
    0.5625    3.0684   -0.4936 H   0  0  0  0  0  0  0  0  0  0  0  0
   -0.1533    3.0775    1.0546 H   0  0  0  0  0  0  0  0  0  0  0  0
   -0.0193    1.1666    0.0030 C   0  0  0  0  0  0  0  0  0  0  0  0
    1.0917    0.3898   -0.0000 C   0  0  0  0  0  0  0  0  0  0  0  0
    2.0350    0.7054   -0.0002 H   0  0  0  0  0  0  0  0  0  0  0  0
    0.6697   -0.9179   -0.0016 N   0  0  0  0  0  0  0  0  0  0  0  0
   -0.6503   -0.9424   -0.0014 C   0  0  0  0  0  0  0  0  0  0  0  0
   -1.2172   -1.7618   -0.0024 H   0  0  0  0  0  0  0  0  0  0  0  0
   -1.0917    0.3039    0.0000 N   0  0  0  0  0  0  0  0  0  0  0  0
   -2.0535    0.5773   -0.0001 H   0  0  0  0  0  0  0  0  0  0  0  0
  1  5  1  0
  5  6  1  0
  5  9  2  0
  1  2  1  0
  1  3  1  0
  1  4  1  0
  6  7  1  0
  6  8  1  0
 10 14  1  0
 14 15  2  0
 15 17  1  0
 17 18  2  0
 18 20  1  0
 20 14  1  0
 10 11  1  0
 10 12  1  0
 10 13  1  0
 15 16  1  0
 18 19  1  0
 20 21  1  0
M  END
>  <PDB_ID>  (71) 
pdb1jln

>  <RESIDUE_NAME>  (71) 
ASN   HID

>  <FRAG_NAME>  (71) 
ACEM   MIMD

>  <FRAG_ATOM_NUM>  (71) 
fragi: 9  fragj: 12

>  <atom.prop.CHAIN_ID>  (71) 
A A A A A A A A A Z Z Z Z Z Z Z Z Z Z Z Z

>  <atom.prop.IS_HEAVY_ATOM>  (71) 
1 0 0 0 1 1 0 0 1 1 0 0 0 1 1 0 1 1 0 1 0

>  <DIFUSE_FUNC_ATOM>  (71) 
n/a

>  <FINAL_SINGLE_POINT_ENERGY>  (71) 
0

>  <NONCOV_INTER_ENERGY_QM>  (71) 
0

>  <FF_Energy>  (71) 
7.79

>  <QM_Energy>  (71) 
18.93

>  <source>  (71) 
ACEM_MIMD

>  <Index>  (71) 
6996

$$$$
ACEM-pdb1jp3-A-ASN-134:MIMD-pdb1jp3-A-HID-101
     RDKit          3D

 21 20  0  0  0  0  0  0  0  0999 V2000
   -5.8740   -0.5929    1.9676 C   0  0  0  0  0  0  0  0  0  0  0  0
   -6.4245   -0.0861    1.3195 H   0  0  0  0  0  0  0  0  0  0  0  0
   -5.8926   -0.1688    2.8624 H   0  0  0  0  0  0  0  0  0  0  0  0
   -6.2799   -1.6008    2.0538 H   0  0  0  0  0  0  0  0  0  0  0  0
   -4.4434   -0.6250    1.4727 C   0  0  0  0  0  0  0  0  0  0  0  0
   -3.9029    0.5198    1.0599 N   0  0  0  0  0  0  0  0  0  0  0  0
   -4.4614    1.3561    1.0990 H   0  0  0  0  0  0  0  0  0  0  0  0
   -2.9725    0.5476    0.7225 H   0  0  0  0  0  0  0  0  0  0  0  0
   -3.8166   -1.7020    1.4807 O   0  0  0  0  0  0  0  0  0  0  0  0
   -0.1677    2.6569    0.0445 C   0  0  0  0  0  0  0  0  0  0  0  0
   -0.5943    2.9561   -0.8139 H   0  0  0  0  0  0  0  0  0  0  0  0
    0.7444    3.0707    0.1141 H   0  0  0  0  0  0  0  0  0  0  0  0
   -0.7750    3.0099    0.8780 H   0  0  0  0  0  0  0  0  0  0  0  0
   -0.0139    1.1688    0.0073 C   0  0  0  0  0  0  0  0  0  0  0  0
    1.0944    0.3855   -0.0000 C   0  0  0  0  0  0  0  0  0  0  0  0
    2.0390    0.6985   -0.0021 H   0  0  0  0  0  0  0  0  0  0  0  0
    0.6686   -0.9210   -0.0021 N   0  0  0  0  0  0  0  0  0  0  0  0
   -0.6547   -0.9417   -0.0052 C   0  0  0  0  0  0  0  0  0  0  0  0
   -1.2231   -1.7581   -0.0098 H   0  0  0  0  0  0  0  0  0  0  0  0
   -1.0944    0.3084   -0.0000 N   0  0  0  0  0  0  0  0  0  0  0  0
   -2.0518    0.5864   -0.0022 H   0  0  0  0  0  0  0  0  0  0  0  0
  1  5  1  0
  5  6  1  0
  5  9  2  0
  1  2  1  0
  1  3  1  0
  1  4  1  0
  6  7  1  0
  6  8  1  0
 10 14  1  0
 14 15  2  0
 15 17  1  0
 17 18  2  0
 18 20  1  0
 20 14  1  0
 10 11  1  0
 10 12  1  0
 10 13  1  0
 15 16  1  0
 18 19  1  0
 20 21  1  0
M  END
>  <PDB_ID>  (72) 
pdb1jp3

>  <RESIDUE_NAME>  (72) 
ASN   HID

>  <FRAG_NAME>  (72) 
ACEM   MIMD

>  <FRAG_ATOM_NUM>  (72) 
fragi: 9  fragj: 12

>  <atom.prop.CHAIN_ID>  (72) 
A A A A A A A A A Z Z Z Z Z Z Z Z Z Z Z Z

>  <atom.prop.IS_HEAVY_ATOM>  (72) 
1 0 0 0 1 1 0 0 1 1 0 0 0 1 1 0 1 1 0 1 0

>  <DIFUSE_FUNC_ATOM>  (72) 
n/a

>  <FINAL_SINGLE_POINT_ENERGY>  (72) 
0

>  <NONCOV_INTER_ENERGY_QM>  (72) 
0

>  <FF_Energy>  (72) 
5.74

>  <QM_Energy>  (72) 
14.35

>  <source>  (72) 
ACEM_MIMD

>  <Index>  (72) 
7104

$$$$
ACEM-pdb2ojv-A-ASN-437:MIMD-pdb2ojv-A-HID-351
     RDKit          3D

 21 20  0  0  0  0  0  0  0  0999 V2000
   -6.2772   -0.2056   -0.2926 C   0  0  0  0  0  0  0  0  0  0  0  0
   -6.5371    0.5701   -0.8594 H   0  0  0  0  0  0  0  0  0  0  0  0
   -6.5407   -0.0443    0.6540 H   0  0  0  0  0  0  0  0  0  0  0  0
   -6.8115   -1.0857   -0.6505 H   0  0  0  0  0  0  0  0  0  0  0  0
   -4.7692   -0.3694   -0.3571 C   0  0  0  0  0  0  0  0  0  0  0  0
   -4.0389    0.7449   -0.3055 N   0  0  0  0  0  0  0  0  0  0  0  0
   -4.5021    1.6306   -0.2211 H   0  0  0  0  0  0  0  0  0  0  0  0
   -3.0467    0.6971   -0.3487 H   0  0  0  0  0  0  0  0  0  0  0  0
   -4.2611   -1.4967   -0.4532 O   0  0  0  0  0  0  0  0  0  0  0  0
   -0.1341    2.6660   -0.0533 C   0  0  0  0  0  0  0  0  0  0  0  0
   -0.8506    2.9360    0.5903 H   0  0  0  0  0  0  0  0  0  0  0  0
   -0.3998    2.9388   -0.9793 H   0  0  0  0  0  0  0  0  0  0  0  0
    0.7927    3.1743    0.2130 H   0  0  0  0  0  0  0  0  0  0  0  0
   -0.0079    1.1670   -0.0195 C   0  0  0  0  0  0  0  0  0  0  0  0
    1.0957    0.3770    0.0000 C   0  0  0  0  0  0  0  0  0  0  0  0
    2.0434    0.6893    0.0075 H   0  0  0  0  0  0  0  0  0  0  0  0
    0.6668   -0.9210    0.0090 N   0  0  0  0  0  0  0  0  0  0  0  0
   -0.6590   -0.9356    0.0104 C   0  0  0  0  0  0  0  0  0  0  0  0
   -1.2288   -1.7526    0.0199 H   0  0  0  0  0  0  0  0  0  0  0  0
   -1.0957    0.3127   -0.0000 N   0  0  0  0  0  0  0  0  0  0  0  0
   -2.0499    0.5967    0.0045 H   0  0  0  0  0  0  0  0  0  0  0  0
  1  5  1  0
  5  6  1  0
  5  9  2  0
  1  2  1  0
  1  3  1  0
  1  4  1  0
  6  7  1  0
  6  8  1  0
 10 14  1  0
 14 15  2  0
 15 17  1  0
 17 18  2  0
 18 20  1  0
 20 14  1  0
 10 11  1  0
 10 12  1  0
 10 13  1  0
 15 16  1  0
 18 19  1  0
 20 21  1  0
M  END
>  <PDB_ID>  (73) 
pdb2ojv

>  <RESIDUE_NAME>  (73) 
ASN   HID

>  <FRAG_NAME>  (73) 
ACEM   MIMD

>  <FRAG_ATOM_NUM>  (73) 
fragi: 9  fragj: 12

>  <atom.prop.CHAIN_ID>  (73) 
A A A A A A A A A Z Z Z Z Z Z Z Z Z Z Z Z

>  <atom.prop.IS_HEAVY_ATOM>  (73) 
1 0 0 0 1 1 0 0 1 1 0 0 0 1 1 0 1 1 0 1 0

>  <DIFUSE_FUNC_ATOM>  (73) 
n/a

>  <FINAL_SINGLE_POINT_ENERGY>  (73) 
0

>  <NONCOV_INTER_ENERGY_QM>  (73) 
0

>  <FF_Energy>  (73) 
7.17

>  <QM_Energy>  (73) 
19.87

>  <source>  (73) 
ACEM_MIMD

>  <Index>  (73) 
7172

$$$$
ACEM-pdb1jvs-B-ASN-153:MIMD-pdb1jvs-B-HID-281
     RDKit          3D

 21 20  0  0  0  0  0  0  0  0999 V2000
   -4.2590    0.2454    3.8490 C   0  0  0  0  0  0  0  0  0  0  0  0
   -5.1425    0.4712    3.4522 H   0  0  0  0  0  0  0  0  0  0  0  0
   -4.1427    0.7081    4.7216 H   0  0  0  0  0  0  0  0  0  0  0  0
   -4.2245   -0.8300    4.0232 H   0  0  0  0  0  0  0  0  0  0  0  0
   -3.1691    0.7115    2.9033 C   0  0  0  0  0  0  0  0  0  0  0  0
   -3.4290    0.6268    1.6031 N   0  0  0  0  0  0  0  0  0  0  0  0
   -4.3154    0.2731    1.2976 H   0  0  0  0  0  0  0  0  0  0  0  0
   -2.7476    0.9142    0.9342 H   0  0  0  0  0  0  0  0  0  0  0  0
   -2.1124    1.1632    3.3365 O   0  0  0  0  0  0  0  0  0  0  0  0
   -0.1739    2.6467    0.1654 C   0  0  0  0  0  0  0  0  0  0  0  0
    0.5367    2.9783    0.7914 H   0  0  0  0  0  0  0  0  0  0  0  0
   -1.0741    2.8302    0.5693 H   0  0  0  0  0  0  0  0  0  0  0  0
   -0.0936    3.1851   -0.7790 H   0  0  0  0  0  0  0  0  0  0  0  0
   -0.0170    1.1669    0.0123 C   0  0  0  0  0  0  0  0  0  0  0  0
    1.0913    0.3897    0.0000 C   0  0  0  0  0  0  0  0  0  0  0  0
    2.0358    0.7054   -0.0036 H   0  0  0  0  0  0  0  0  0  0  0  0
    0.6685   -0.9165   -0.0056 N   0  0  0  0  0  0  0  0  0  0  0  0
   -0.6516   -0.9418   -0.0067 C   0  0  0  0  0  0  0  0  0  0  0  0
   -1.2178   -1.7618   -0.0112 H   0  0  0  0  0  0  0  0  0  0  0  0
   -1.0913    0.3017    0.0000 N   0  0  0  0  0  0  0  0  0  0  0  0
   -2.0525    0.5794   -0.0040 H   0  0  0  0  0  0  0  0  0  0  0  0
  1  5  1  0
  5  6  1  0
  5  9  2  0
  1  2  1  0
  1  3  1  0
  1  4  1  0
  6  7  1  0
  6  8  1  0
 10 14  1  0
 14 15  2  0
 15 17  1  0
 17 18  2  0
 18 20  1  0
 20 14  1  0
 10 11  1  0
 10 12  1  0
 10 13  1  0
 15 16  1  0
 18 19  1  0
 20 21  1  0
M  END
>  <PDB_ID>  (74) 
pdb1jvs

>  <RESIDUE_NAME>  (74) 
ASN   HID

>  <FRAG_NAME>  (74) 
ACEM   MIMD

>  <FRAG_ATOM_NUM>  (74) 
fragi: 9  fragj: 12

>  <atom.prop.CHAIN_ID>  (74) 
A A A A A A A A A Z Z Z Z Z Z Z Z Z Z Z Z

>  <atom.prop.IS_HEAVY_ATOM>  (74) 
1 0 0 0 1 1 0 0 1 1 0 0 0 1 1 0 1 1 0 1 0

>  <DIFUSE_FUNC_ATOM>  (74) 
n/a

>  <FINAL_SINGLE_POINT_ENERGY>  (74) 
0

>  <NONCOV_INTER_ENERGY_QM>  (74) 
0

>  <FF_Energy>  (74) 
7.92

>  <QM_Energy>  (74) 
15.98

>  <source>  (74) 
ACEM_MIMD

>  <Index>  (74) 
7252

$$$$
ACEM-pdb1jzn-D-ASN-19:MIMD-pdb1jzn-D-HID-60
     RDKit          3D

 21 20  0  0  0  0  0  0  0  0999 V2000
   -5.1794   -0.6275   -0.9563 C   0  0  0  0  0  0  0  0  0  0  0  0
   -6.1716   -0.6676   -0.9604 H   0  0  0  0  0  0  0  0  0  0  0  0
   -4.8063   -1.2514   -0.2791 H   0  0  0  0  0  0  0  0  0  0  0  0
   -4.8181   -0.9292   -1.9394 H   0  0  0  0  0  0  0  0  0  0  0  0
   -4.7512    0.7812   -0.6081 C   0  0  0  0  0  0  0  0  0  0  0  0
   -3.4600    0.9793   -0.3672 N   0  0  0  0  0  0  0  0  0  0  0  0
   -2.8238    0.2045   -0.4300 H   0  0  0  0  0  0  0  0  0  0  0  0
   -3.1234    1.8854   -0.1288 H   0  0  0  0  0  0  0  0  0  0  0  0
   -5.5825    1.6781   -0.5277 O   0  0  0  0  0  0  0  0  0  0  0  0
   -0.1750    2.6564   -0.0050 C   0  0  0  0  0  0  0  0  0  0  0  0
   -0.6192    2.9250   -0.8680 H   0  0  0  0  0  0  0  0  0  0  0  0
    0.7420    3.0711    0.0230 H   0  0  0  0  0  0  0  0  0  0  0  0
   -0.7617    3.0397    0.8299 H   0  0  0  0  0  0  0  0  0  0  0  0
   -0.0168    1.1678   -0.0021 C   0  0  0  0  0  0  0  0  0  0  0  0
    1.0917    0.3887   -0.0000 C   0  0  0  0  0  0  0  0  0  0  0  0
    2.0370    0.7030    0.0015 H   0  0  0  0  0  0  0  0  0  0  0  0
    0.6689   -0.9178    0.0013 N   0  0  0  0  0  0  0  0  0  0  0  0
   -0.6521   -0.9425    0.0007 C   0  0  0  0  0  0  0  0  0  0  0  0
   -1.2188   -1.7614    0.0019 H   0  0  0  0  0  0  0  0  0  0  0  0
   -1.0917    0.3038    0.0000 N   0  0  0  0  0  0  0  0  0  0  0  0
   -2.0522    0.5803   -0.0001 H   0  0  0  0  0  0  0  0  0  0  0  0
  1  5  1  0
  5  6  1  0
  5  9  2  0
  1  2  1  0
  1  3  1  0
  1  4  1  0
  6  7  1  0
  6  8  1  0
 10 14  1  0
 14 15  2  0
 15 17  1  0
 17 18  2  0
 18 20  1  0
 20 14  1  0
 10 11  1  0
 10 12  1  0
 10 13  1  0
 15 16  1  0
 18 19  1  0
 20 21  1  0
M  END
>  <PDB_ID>  (75) 
pdb1jzn

>  <RESIDUE_NAME>  (75) 
ASN   HID

>  <FRAG_NAME>  (75) 
ACEM   MIMD

>  <FRAG_ATOM_NUM>  (75) 
fragi: 9  fragj: 12

>  <atom.prop.CHAIN_ID>  (75) 
A A A A A A A A A Z Z Z Z Z Z Z Z Z Z Z Z

>  <atom.prop.IS_HEAVY_ATOM>  (75) 
1 0 0 0 1 1 0 0 1 1 0 0 0 1 1 0 1 1 0 1 0

>  <DIFUSE_FUNC_ATOM>  (75) 
n/a

>  <FINAL_SINGLE_POINT_ENERGY>  (75) 
0

>  <NONCOV_INTER_ENERGY_QM>  (75) 
0

>  <FF_Energy>  (75) 
29.14

>  <QM_Energy>  (75) 
45.44

>  <source>  (75) 
ACEM_MIMD

>  <Index>  (75) 
7332

$$$$
ACEM-pdb2oqx-A-GLN-337:MIMD-pdb2oqx-A-HID-6
     RDKit          3D

 21 20  0  0  0  0  0  0  0  0999 V2000
   -2.3141   -2.8955    2.1800 C   0  0  0  0  0  0  0  0  0  0  0  0
   -3.2068   -3.1465    2.5560 H   0  0  0  0  0  0  0  0  0  0  0  0
   -2.4379   -2.2067    1.4640 H   0  0  0  0  0  0  0  0  0  0  0  0
   -1.7115   -2.4620    2.9781 H   0  0  0  0  0  0  0  0  0  0  0  0
   -1.6854   -4.1338    1.5580 C   0  0  0  0  0  0  0  0  0  0  0  0
   -1.1668   -3.9850    0.3429 N   0  0  0  0  0  0  0  0  0  0  0  0
   -0.7179   -4.7639   -0.1301 H   0  0  0  0  0  0  0  0  0  0  0  0
   -1.2276   -3.0744   -0.1085 H   0  0  0  0  0  0  0  0  0  0  0  0
   -1.6625   -5.2068    2.1609 O   0  0  0  0  0  0  0  0  0  0  0  0
   -0.1760    2.6562    0.0432 C   0  0  0  0  0  0  0  0  0  0  0  0
   -1.1571    2.8714   -0.0065 H   0  0  0  0  0  0  0  0  0  0  0  0
    0.2768    3.0439   -0.7666 H   0  0  0  0  0  0  0  0  0  0  0  0
    0.2425    3.1189    0.9370 H   0  0  0  0  0  0  0  0  0  0  0  0
   -0.0169    1.1673    0.0038 C   0  0  0  0  0  0  0  0  0  0  0  0
    1.0915    0.3890   -0.0000 C   0  0  0  0  0  0  0  0  0  0  0  0
    2.0363    0.7041   -0.0001 H   0  0  0  0  0  0  0  0  0  0  0  0
    0.6691   -0.9181   -0.0014 N   0  0  0  0  0  0  0  0  0  0  0  0
   -0.6522   -0.9421   -0.0023 C   0  0  0  0  0  0  0  0  0  0  0  0
   -1.2193   -1.7604   -0.0028 H   0  0  0  0  0  0  0  0  0  0  0  0
   -1.0915    0.3041    0.0000 N   0  0  0  0  0  0  0  0  0  0  0  0
   -2.0527    0.5804   -0.0017 H   0  0  0  0  0  0  0  0  0  0  0  0
  1  5  1  0
  5  6  1  0
  5  9  2  0
  1  2  1  0
  1  3  1  0
  1  4  1  0
  6  7  1  0
  6  8  1  0
 10 14  1  0
 14 15  2  0
 15 17  1  0
 17 18  2  0
 18 20  1  0
 20 14  1  0
 10 11  1  0
 10 12  1  0
 10 13  1  0
 15 16  1  0
 18 19  1  0
 20 21  1  0
M  END
>  <PDB_ID>  (76) 
pdb2oqx

>  <RESIDUE_NAME>  (76) 
GLN   HID

>  <FRAG_NAME>  (76) 
ACEM   MIMD

>  <FRAG_ATOM_NUM>  (76) 
fragi: 9  fragj: 12

>  <atom.prop.CHAIN_ID>  (76) 
A A A A A A A A A Z Z Z Z Z Z Z Z Z Z Z Z

>  <atom.prop.IS_HEAVY_ATOM>  (76) 
1 0 0 0 1 1 0 0 1 1 0 0 0 1 1 0 1 1 0 1 0

>  <DIFUSE_FUNC_ATOM>  (76) 
n/a

>  <FINAL_SINGLE_POINT_ENERGY>  (76) 
0

>  <NONCOV_INTER_ENERGY_QM>  (76) 
0

>  <FF_Energy>  (76) 
1.96

>  <QM_Energy>  (76) 
9.09

>  <source>  (76) 
ACEM_MIMD

>  <Index>  (76) 
7375

$$$$
ACEM-pdb1kcx-B-ASN-432:MIMD-pdb1kcx-B-HID-425
     RDKit          3D

 21 20  0  0  0  0  0  0  0  0999 V2000
   -4.4341   -0.1474   -1.4294 C   0  0  0  0  0  0  0  0  0  0  0  0
   -3.4540   -0.3121   -1.4748 H   0  0  0  0  0  0  0  0  0  0  0  0
   -4.7749    0.1574   -2.3133 H   0  0  0  0  0  0  0  0  0  0  0  0
   -4.9294   -1.0844   -1.1748 H   0  0  0  0  0  0  0  0  0  0  0  0
   -4.6947    0.9451   -0.4059 C   0  0  0  0  0  0  0  0  0  0  0  0
   -3.6373    1.6148    0.0334 N   0  0  0  0  0  0  0  0  0  0  0  0
   -2.7253    1.3895   -0.3189 H   0  0  0  0  0  0  0  0  0  0  0  0
   -3.7451    2.3404    0.7102 H   0  0  0  0  0  0  0  0  0  0  0  0
   -5.8376    1.1813   -0.0149 O   0  0  0  0  0  0  0  0  0  0  0  0
   -0.2014    2.6556    0.0940 C   0  0  0  0  0  0  0  0  0  0  0  0
   -0.5367    2.8833    1.0193 H   0  0  0  0  0  0  0  0  0  0  0  0
   -0.9141    2.9275   -0.5687 H   0  0  0  0  0  0  0  0  0  0  0  0
    0.6976    3.2395   -0.1035 H   0  0  0  0  0  0  0  0  0  0  0  0
   -0.0239    1.1702    0.0097 C   0  0  0  0  0  0  0  0  0  0  0  0
    1.0924    0.3947    0.0000 C   0  0  0  0  0  0  0  0  0  0  0  0
    2.0329    0.7103   -0.0026 H   0  0  0  0  0  0  0  0  0  0  0  0
    0.6685   -0.9187   -0.0039 N   0  0  0  0  0  0  0  0  0  0  0  0
   -0.6446   -0.9439   -0.0058 C   0  0  0  0  0  0  0  0  0  0  0  0
   -1.2127   -1.7664   -0.0095 H   0  0  0  0  0  0  0  0  0  0  0  0
   -1.0924    0.2977   -0.0000 N   0  0  0  0  0  0  0  0  0  0  0  0
   -2.0555    0.5683   -0.0025 H   0  0  0  0  0  0  0  0  0  0  0  0
  1  5  1  0
  5  6  1  0
  5  9  2  0
  1  2  1  0
  1  3  1  0
  1  4  1  0
  6  7  1  0
  6  8  1  0
 10 14  1  0
 14 15  2  0
 15 17  1  0
 17 18  2  0
 18 20  1  0
 20 14  1  0
 10 11  1  0
 10 12  1  0
 10 13  1  0
 15 16  1  0
 18 19  1  0
 20 21  1  0
M  END
>  <PDB_ID>  (77) 
pdb1kcx

>  <RESIDUE_NAME>  (77) 
ASN   HID

>  <FRAG_NAME>  (77) 
ACEM   MIMD

>  <FRAG_ATOM_NUM>  (77) 
fragi: 9  fragj: 12

>  <atom.prop.CHAIN_ID>  (77) 
A A A A A A A A A Z Z Z Z Z Z Z Z Z Z Z Z

>  <atom.prop.IS_HEAVY_ATOM>  (77) 
1 0 0 0 1 1 0 0 1 1 0 0 0 1 1 0 1 1 0 1 0

>  <DIFUSE_FUNC_ATOM>  (77) 
n/a

>  <FINAL_SINGLE_POINT_ENERGY>  (77) 
0

>  <NONCOV_INTER_ENERGY_QM>  (77) 
0

>  <FF_Energy>  (77) 
8.7

>  <QM_Energy>  (77) 
19.26

>  <source>  (77) 
ACEM_MIMD

>  <Index>  (77) 
7598

$$$$
ACEM-pdb1khu-A-ASN-459:MIMD-pdb1khu-C-HID-329
     RDKit          3D

 21 20  0  0  0  0  0  0  0  0999 V2000
    0.4904   -5.6428    0.0916 C   0  0  0  0  0  0  0  0  0  0  0  0
   -0.2226   -5.8501   -0.5720 H   0  0  0  0  0  0  0  0  0  0  0  0
    0.5619   -6.3777    0.7602 H   0  0  0  0  0  0  0  0  0  0  0  0
    1.4402   -5.5694   -0.4382 H   0  0  0  0  0  0  0  0  0  0  0  0
    0.1138   -4.3572    0.8223 C   0  0  0  0  0  0  0  0  0  0  0  0
   -0.9466   -3.7019    0.3591 N   0  0  0  0  0  0  0  0  0  0  0  0
   -1.4520   -4.0649   -0.4261 H   0  0  0  0  0  0  0  0  0  0  0  0
   -1.2395   -2.8515    0.7920 H   0  0  0  0  0  0  0  0  0  0  0  0
    0.7646   -3.9618    1.7898 O   0  0  0  0  0  0  0  0  0  0  0  0
   -0.1709    2.6553   -0.0212 C   0  0  0  0  0  0  0  0  0  0  0  0
   -1.0650    2.8709   -0.4290 H   0  0  0  0  0  0  0  0  0  0  0  0
    0.5487    3.0392   -0.6097 H   0  0  0  0  0  0  0  0  0  0  0  0
   -0.1073    3.1139    0.9656 H   0  0  0  0  0  0  0  0  0  0  0  0
   -0.0133    1.1675   -0.0000 C   0  0  0  0  0  0  0  0  0  0  0  0
    1.0916    0.3871    0.0000 C   0  0  0  0  0  0  0  0  0  0  0  0
    2.0377    0.6997    0.0006 H   0  0  0  0  0  0  0  0  0  0  0  0
    0.6664   -0.9196   -0.0010 N   0  0  0  0  0  0  0  0  0  0  0  0
   -0.6531   -0.9403    0.0010 C   0  0  0  0  0  0  0  0  0  0  0  0
   -1.2221   -1.7586    0.0040 H   0  0  0  0  0  0  0  0  0  0  0  0
   -1.0916    0.3052    0.0000 N   0  0  0  0  0  0  0  0  0  0  0  0
   -2.0512    0.5843   -0.0006 H   0  0  0  0  0  0  0  0  0  0  0  0
  1  5  1  0
  5  6  1  0
  5  9  2  0
  1  2  1  0
  1  3  1  0
  1  4  1  0
  6  7  1  0
  6  8  1  0
 10 14  1  0
 14 15  2  0
 15 17  1  0
 17 18  2  0
 18 20  1  0
 20 14  1  0
 10 11  1  0
 10 12  1  0
 10 13  1  0
 15 16  1  0
 18 19  1  0
 20 21  1  0
M  END
>  <PDB_ID>  (78) 
pdb1khu

>  <RESIDUE_NAME>  (78) 
ASN   HID

>  <FRAG_NAME>  (78) 
ACEM   MIMD

>  <FRAG_ATOM_NUM>  (78) 
fragi: 9  fragj: 12

>  <atom.prop.CHAIN_ID>  (78) 
A A A A A A A A A Z Z Z Z Z Z Z Z Z Z Z Z

>  <atom.prop.IS_HEAVY_ATOM>  (78) 
1 0 0 0 1 1 0 0 1 1 0 0 0 1 1 0 1 1 0 1 0

>  <DIFUSE_FUNC_ATOM>  (78) 
n/a

>  <FINAL_SINGLE_POINT_ENERGY>  (78) 
0

>  <NONCOV_INTER_ENERGY_QM>  (78) 
0

>  <FF_Energy>  (78) 
9.07

>  <QM_Energy>  (78) 
14.64

>  <source>  (78) 
ACEM_MIMD

>  <Index>  (78) 
7686

$$$$
ACEM-pdb1kjt-A-ASN-81:MIMD-pdb1kjt-A-HID-98
     RDKit          3D

 21 20  0  0  0  0  0  0  0  0999 V2000
   -3.4886    0.2494    2.9913 C   0  0  0  0  0  0  0  0  0  0  0  0
   -2.6049   -0.0604    2.6549 H   0  0  0  0  0  0  0  0  0  0  0  0
   -4.2078   -0.3713    2.6937 H   0  0  0  0  0  0  0  0  0  0  0  0
   -3.4630    0.2521    4.0811 H   0  0  0  0  0  0  0  0  0  0  0  0
   -3.7693    1.6272    2.4116 C   0  0  0  0  0  0  0  0  0  0  0  0
   -3.1657    1.9254    1.2659 N   0  0  0  0  0  0  0  0  0  0  0  0
   -2.5670    1.2498    0.8305 H   0  0  0  0  0  0  0  0  0  0  0  0
   -3.3066    2.8167    0.8398 H   0  0  0  0  0  0  0  0  0  0  0  0
   -4.5068    2.4166    2.9934 O   0  0  0  0  0  0  0  0  0  0  0  0
   -0.1494    2.6786    0.0008 C   0  0  0  0  0  0  0  0  0  0  0  0
    0.7650    3.0753    0.1000 H   0  0  0  0  0  0  0  0  0  0  0  0
   -0.7047    2.9274    0.7961 H   0  0  0  0  0  0  0  0  0  0  0  0
   -0.6175    3.0641   -0.9049 H   0  0  0  0  0  0  0  0  0  0  0  0
    0.0012    1.1630    0.0000 C   0  0  0  0  0  0  0  0  0  0  0  0
    1.0991    0.3683   -0.0000 C   0  0  0  0  0  0  0  0  0  0  0  0
    2.0472    0.6752    0.0006 H   0  0  0  0  0  0  0  0  0  0  0  0
    0.6545   -0.9135   -0.0000 N   0  0  0  0  0  0  0  0  0  0  0  0
   -0.6557   -0.9300   -0.0000 C   0  0  0  0  0  0  0  0  0  0  0  0
   -1.2305   -1.7500    0.0010 H   0  0  0  0  0  0  0  0  0  0  0  0
   -1.0991    0.3121    0.0000 N   0  0  0  0  0  0  0  0  0  0  0  0
   -2.0456    0.6002   -0.0009 H   0  0  0  0  0  0  0  0  0  0  0  0
  1  5  1  0
  5  6  1  0
  5  9  2  0
  1  2  1  0
  1  3  1  0
  1  4  1  0
  6  7  1  0
  6  8  1  0
 10 14  1  0
 14 15  2  0
 15 17  1  0
 17 18  2  0
 18 20  1  0
 20 14  1  0
 10 11  1  0
 10 12  1  0
 10 13  1  0
 15 16  1  0
 18 19  1  0
 20 21  1  0
M  END
>  <PDB_ID>  (79) 
pdb1kjt

>  <RESIDUE_NAME>  (79) 
ASN   HID

>  <FRAG_NAME>  (79) 
ACEM   MIMD

>  <FRAG_ATOM_NUM>  (79) 
fragi: 9  fragj: 12

>  <atom.prop.CHAIN_ID>  (79) 
A A A A A A A A A Z Z Z Z Z Z Z Z Z Z Z Z

>  <atom.prop.IS_HEAVY_ATOM>  (79) 
1 0 0 0 1 1 0 0 1 1 0 0 0 1 1 0 1 1 0 1 0

>  <DIFUSE_FUNC_ATOM>  (79) 
n/a

>  <FINAL_SINGLE_POINT_ENERGY>  (79) 
0

>  <NONCOV_INTER_ENERGY_QM>  (79) 
0

>  <FF_Energy>  (79) 
7.62

>  <QM_Energy>  (79) 
15.36

>  <source>  (79) 
ACEM_MIMD

>  <Index>  (79) 
7725

$$$$
ACEM-pdb2p4o-A-ASN-276:MIMD-pdb2p4o-A-HID-229
     RDKit          3D

 21 20  0  0  0  0  0  0  0  0999 V2000
   -4.0683   -3.8172   -2.0858 C   0  0  0  0  0  0  0  0  0  0  0  0
   -3.9538   -4.7989   -1.9384 H   0  0  0  0  0  0  0  0  0  0  0  0
   -3.7826   -3.5824   -3.0146 H   0  0  0  0  0  0  0  0  0  0  0  0
   -5.1285   -3.5829   -1.9903 H   0  0  0  0  0  0  0  0  0  0  0  0
   -3.2062   -3.0719   -1.1052 C   0  0  0  0  0  0  0  0  0  0  0  0
   -1.9297   -2.8632   -1.4581 N   0  0  0  0  0  0  0  0  0  0  0  0
   -1.6090   -3.1991   -2.3448 H   0  0  0  0  0  0  0  0  0  0  0  0
   -1.3164   -2.3806   -0.8446 H   0  0  0  0  0  0  0  0  0  0  0  0
   -3.6465   -2.7484   -0.0261 O   0  0  0  0  0  0  0  0  0  0  0  0
   -0.1762    2.6429    0.1085 C   0  0  0  0  0  0  0  0  0  0  0  0
   -0.2117    3.0023   -0.8285 H   0  0  0  0  0  0  0  0  0  0  0  0
    0.6156    3.0415    0.5790 H   0  0  0  0  0  0  0  0  0  0  0  0
   -1.0769    2.9665    0.6301 H   0  0  0  0  0  0  0  0  0  0  0  0
   -0.0153    1.1647    0.0552 C   0  0  0  0  0  0  0  0  0  0  0  0
    1.0909    0.3835    0.0000 C   0  0  0  0  0  0  0  0  0  0  0  0
    2.0361    0.6976   -0.0232 H   0  0  0  0  0  0  0  0  0  0  0  0
    0.6665   -0.9218   -0.0179 N   0  0  0  0  0  0  0  0  0  0  0  0
   -0.6512   -0.9375   -0.0373 C   0  0  0  0  0  0  0  0  0  0  0  0
   -1.2240   -1.7533   -0.0715 H   0  0  0  0  0  0  0  0  0  0  0  0
   -1.0909    0.3111   -0.0000 N   0  0  0  0  0  0  0  0  0  0  0  0
   -2.0507    0.5872   -0.0114 H   0  0  0  0  0  0  0  0  0  0  0  0
  1  5  1  0
  5  6  1  0
  5  9  2  0
  1  2  1  0
  1  3  1  0
  1  4  1  0
  6  7  1  0
  6  8  1  0
 10 14  1  0
 14 15  2  0
 15 17  1  0
 17 18  2  0
 18 20  1  0
 20 14  1  0
 10 11  1  0
 10 12  1  0
 10 13  1  0
 15 16  1  0
 18 19  1  0
 20 21  1  0
M  END
>  <PDB_ID>  (80) 
pdb2p4o

>  <RESIDUE_NAME>  (80) 
ASN   HID

>  <FRAG_NAME>  (80) 
ACEM   MIMD

>  <FRAG_ATOM_NUM>  (80) 
fragi: 9  fragj: 12

>  <atom.prop.CHAIN_ID>  (80) 
A A A A A A A A A Z Z Z Z Z Z Z Z Z Z Z Z

>  <atom.prop.IS_HEAVY_ATOM>  (80) 
1 0 0 0 1 1 0 0 1 1 0 0 0 1 1 0 1 1 0 1 0

>  <DIFUSE_FUNC_ATOM>  (80) 
n/a

>  <FINAL_SINGLE_POINT_ENERGY>  (80) 
0

>  <NONCOV_INTER_ENERGY_QM>  (80) 
0

>  <FF_Energy>  (80) 
7.47

>  <QM_Energy>  (80) 
26.79

>  <source>  (80) 
ACEM_MIMD

>  <Index>  (80) 
7770

$$$$
ACEM-pdb1kq4-D-ASN-85:MIMD-pdb1kq4-C-HID-59
     RDKit          3D

 21 20  0  0  0  0  0  0  0  0999 V2000
   -1.6480   -4.0406   -2.0596 C   0  0  0  0  0  0  0  0  0  0  0  0
   -0.9654   -3.3287   -1.9394 H   0  0  0  0  0  0  0  0  0  0  0  0
   -1.9203   -4.1070   -3.0130 H   0  0  0  0  0  0  0  0  0  0  0  0
   -1.2161   -4.9934   -1.7533 H   0  0  0  0  0  0  0  0  0  0  0  0
   -2.8671   -3.6851   -1.2323 C   0  0  0  0  0  0  0  0  0  0  0  0
   -2.7318   -2.6876   -0.3671 N   0  0  0  0  0  0  0  0  0  0  0  0
   -1.8529   -2.2102   -0.2948 H   0  0  0  0  0  0  0  0  0  0  0  0
   -3.4991   -2.4124    0.2089 H   0  0  0  0  0  0  0  0  0  0  0  0
   -3.9160   -4.3224   -1.3549 O   0  0  0  0  0  0  0  0  0  0  0  0
   -0.1729    2.6558   -0.0851 C   0  0  0  0  0  0  0  0  0  0  0  0
   -1.0277    2.8582   -0.5679 H   0  0  0  0  0  0  0  0  0  0  0  0
    0.5953    3.0260   -0.6130 H   0  0  0  0  0  0  0  0  0  0  0  0
   -0.1947    3.1364    0.8930 H   0  0  0  0  0  0  0  0  0  0  0  0
   -0.0173    1.1684   -0.0034 C   0  0  0  0  0  0  0  0  0  0  0  0
    1.0913    0.3889   -0.0000 C   0  0  0  0  0  0  0  0  0  0  0  0
    2.0361    0.7041    0.0014 H   0  0  0  0  0  0  0  0  0  0  0  0
    0.6683   -0.9180    0.0021 N   0  0  0  0  0  0  0  0  0  0  0  0
   -0.6510   -0.9428    0.0012 C   0  0  0  0  0  0  0  0  0  0  0  0
   -1.2188   -1.7613    0.0029 H   0  0  0  0  0  0  0  0  0  0  0  0
   -1.0913    0.3036    0.0000 N   0  0  0  0  0  0  0  0  0  0  0  0
   -2.0523    0.5799    0.0002 H   0  0  0  0  0  0  0  0  0  0  0  0
  1  5  1  0
  5  6  1  0
  5  9  2  0
  1  2  1  0
  1  3  1  0
  1  4  1  0
  6  7  1  0
  6  8  1  0
 10 14  1  0
 14 15  2  0
 15 17  1  0
 17 18  2  0
 18 20  1  0
 20 14  1  0
 10 11  1  0
 10 12  1  0
 10 13  1  0
 15 16  1  0
 18 19  1  0
 20 21  1  0
M  END
>  <PDB_ID>  (81) 
pdb1kq4

>  <RESIDUE_NAME>  (81) 
ASN   HID

>  <FRAG_NAME>  (81) 
ACEM   MIMD

>  <FRAG_ATOM_NUM>  (81) 
fragi: 9  fragj: 12

>  <atom.prop.CHAIN_ID>  (81) 
A A A A A A A A A Z Z Z Z Z Z Z Z Z Z Z Z

>  <atom.prop.IS_HEAVY_ATOM>  (81) 
1 0 0 0 1 1 0 0 1 1 0 0 0 1 1 0 1 1 0 1 0

>  <DIFUSE_FUNC_ATOM>  (81) 
n/a

>  <FINAL_SINGLE_POINT_ENERGY>  (81) 
0

>  <NONCOV_INTER_ENERGY_QM>  (81) 
0

>  <FF_Energy>  (81) 
21.03

>  <QM_Energy>  (81) 
47.21

>  <source>  (81) 
ACEM_MIMD

>  <Index>  (81) 
7817

$$$$
ACEM-pdb2pd2-B-GLN-6:MIMD-pdb2pd2-B-HID-37
     RDKit          3D

 21 20  0  0  0  0  0  0  0  0999 V2000
   -2.9428   -3.0533    0.2117 C   0  0  0  0  0  0  0  0  0  0  0  0
   -3.0599   -2.9264   -0.7746 H   0  0  0  0  0  0  0  0  0  0  0  0
   -2.6873   -2.1805    0.6294 H   0  0  0  0  0  0  0  0  0  0  0  0
   -3.8907   -3.3817    0.6378 H   0  0  0  0  0  0  0  0  0  0  0  0
   -1.8207   -4.0459    0.4394 C   0  0  0  0  0  0  0  0  0  0  0  0
   -0.6360   -3.5403    0.7727 N   0  0  0  0  0  0  0  0  0  0  0  0
    0.1577   -4.1456    0.9545 H   0  0  0  0  0  0  0  0  0  0  0  0
   -0.5371   -2.5281    0.8416 H   0  0  0  0  0  0  0  0  0  0  0  0
   -2.0142   -5.2526    0.3014 O   0  0  0  0  0  0  0  0  0  0  0  0
   -0.1798    2.6500   -0.0023 C   0  0  0  0  0  0  0  0  0  0  0  0
    0.7231    3.0720    0.1479 H   0  0  0  0  0  0  0  0  0  0  0  0
   -0.7788    2.9083    0.7666 H   0  0  0  0  0  0  0  0  0  0  0  0
   -0.6035    3.0505   -0.9232 H   0  0  0  0  0  0  0  0  0  0  0  0
   -0.0156    1.1660    0.0039 C   0  0  0  0  0  0  0  0  0  0  0  0
    1.0918    0.3888   -0.0000 C   0  0  0  0  0  0  0  0  0  0  0  0
    2.0374    0.7027    0.0002 H   0  0  0  0  0  0  0  0  0  0  0  0
    0.6674   -0.9171   -0.0037 N   0  0  0  0  0  0  0  0  0  0  0  0
   -0.6518   -0.9400   -0.0003 C   0  0  0  0  0  0  0  0  0  0  0  0
   -1.2190   -1.7605    0.0019 H   0  0  0  0  0  0  0  0  0  0  0  0
   -1.0918    0.3023    0.0000 N   0  0  0  0  0  0  0  0  0  0  0  0
   -2.0518    0.5809   -0.0028 H   0  0  0  0  0  0  0  0  0  0  0  0
  1  5  1  0
  5  6  1  0
  5  9  2  0
  1  2  1  0
  1  3  1  0
  1  4  1  0
  6  7  1  0
  6  8  1  0
 10 14  1  0
 14 15  2  0
 15 17  1  0
 17 18  2  0
 18 20  1  0
 20 14  1  0
 10 11  1  0
 10 12  1  0
 10 13  1  0
 15 16  1  0
 18 19  1  0
 20 21  1  0
M  END
>  <PDB_ID>  (82) 
pdb2pd2

>  <RESIDUE_NAME>  (82) 
GLN   HID

>  <FRAG_NAME>  (82) 
ACEM   MIMD

>  <FRAG_ATOM_NUM>  (82) 
fragi: 9  fragj: 12

>  <atom.prop.CHAIN_ID>  (82) 
A A A A A A A A A Z Z Z Z Z Z Z Z Z Z Z Z

>  <atom.prop.IS_HEAVY_ATOM>  (82) 
1 0 0 0 1 1 0 0 1 1 0 0 0 1 1 0 1 1 0 1 0

>  <DIFUSE_FUNC_ATOM>  (82) 
n/a

>  <FINAL_SINGLE_POINT_ENERGY>  (82) 
0

>  <NONCOV_INTER_ENERGY_QM>  (82) 
0

>  <FF_Energy>  (82) 
7.17

>  <QM_Energy>  (82) 
16.5

>  <source>  (82) 
ACEM_MIMD

>  <Index>  (82) 
7962

$$$$
ACEM-pdb1l7a-A-ASN-104:MIMD-pdb1l7a-B-HID-108
     RDKit          3D

 21 20  0  0  0  0  0  0  0  0999 V2000
   -3.8954   -4.6995    0.9042 C   0  0  0  0  0  0  0  0  0  0  0  0
   -3.9274   -5.6555    0.6612 H   0  0  0  0  0  0  0  0  0  0  0  0
   -4.7977   -4.2995    0.9258 H   0  0  0  0  0  0  0  0  0  0  0  0
   -3.4462   -4.6041    1.8928 H   0  0  0  0  0  0  0  0  0  0  0  0
   -3.0611   -3.9635   -0.1244 C   0  0  0  0  0  0  0  0  0  0  0  0
   -2.3260   -2.9895    0.3882 N   0  0  0  0  0  0  0  0  0  0  0  0
   -2.3235   -2.7728    1.3549 H   0  0  0  0  0  0  0  0  0  0  0  0
   -1.7382   -2.4372   -0.2330 H   0  0  0  0  0  0  0  0  0  0  0  0
   -3.1034   -4.3072   -1.3102 O   0  0  0  0  0  0  0  0  0  0  0  0
   -0.1529    2.6558    0.0904 C   0  0  0  0  0  0  0  0  0  0  0  0
   -0.8239    2.9304   -0.5962 H   0  0  0  0  0  0  0  0  0  0  0  0
    0.7336    3.0630   -0.1251 H   0  0  0  0  0  0  0  0  0  0  0  0
   -0.4789    3.0035    1.0707 H   0  0  0  0  0  0  0  0  0  0  0  0
   -0.0098    1.1613    0.0405 C   0  0  0  0  0  0  0  0  0  0  0  0
    1.0973    0.3846   -0.0000 C   0  0  0  0  0  0  0  0  0  0  0  0
    2.0413    0.6953   -0.0048 H   0  0  0  0  0  0  0  0  0  0  0  0
    0.6663   -0.9187   -0.0309 N   0  0  0  0  0  0  0  0  0  0  0  0
   -0.6565   -0.9384   -0.0096 C   0  0  0  0  0  0  0  0  0  0  0  0
   -1.2258   -1.7556   -0.0018 H   0  0  0  0  0  0  0  0  0  0  0  0
   -1.0973    0.3111   -0.0000 N   0  0  0  0  0  0  0  0  0  0  0  0
   -2.0506    0.5916   -0.0187 H   0  0  0  0  0  0  0  0  0  0  0  0
  1  5  1  0
  5  6  1  0
  5  9  2  0
  1  2  1  0
  1  3  1  0
  1  4  1  0
  6  7  1  0
  6  8  1  0
 10 14  1  0
 14 15  2  0
 15 17  1  0
 17 18  2  0
 18 20  1  0
 20 14  1  0
 10 11  1  0
 10 12  1  0
 10 13  1  0
 15 16  1  0
 18 19  1  0
 20 21  1  0
M  END
>  <PDB_ID>  (83) 
pdb1l7a

>  <RESIDUE_NAME>  (83) 
ASN   HID

>  <FRAG_NAME>  (83) 
ACEM   MIMD

>  <FRAG_ATOM_NUM>  (83) 
fragi: 9  fragj: 12

>  <atom.prop.CHAIN_ID>  (83) 
A A A A A A A A A Z Z Z Z Z Z Z Z Z Z Z Z

>  <atom.prop.IS_HEAVY_ATOM>  (83) 
1 0 0 0 1 1 0 0 1 1 0 0 0 1 1 0 1 1 0 1 0

>  <DIFUSE_FUNC_ATOM>  (83) 
n/a

>  <FINAL_SINGLE_POINT_ENERGY>  (83) 
0

>  <NONCOV_INTER_ENERGY_QM>  (83) 
0

>  <FF_Energy>  (83) 
35.54

>  <QM_Energy>  (83) 
45.7

>  <source>  (83) 
ACEM_MIMD

>  <Index>  (83) 
8038

$$$$
ACEM-pdb2po3-A-ASN-1049:MIMD-pdb2po3-B-HID-2197
     RDKit          3D

 21 20  0  0  0  0  0  0  0  0999 V2000
   -0.6536   -5.7700   -0.0310 C   0  0  0  0  0  0  0  0  0  0  0  0
    0.1659   -5.8995    0.5221 H   0  0  0  0  0  0  0  0  0  0  0  0
   -0.6374   -6.3877   -0.8137 H   0  0  0  0  0  0  0  0  0  0  0  0
   -1.5178   -6.0258    0.5821 H   0  0  0  0  0  0  0  0  0  0  0  0
   -0.6728   -4.3323   -0.5443 C   0  0  0  0  0  0  0  0  0  0  0  0
   -1.5358   -3.5014    0.0454 N   0  0  0  0  0  0  0  0  0  0  0  0
   -2.1187   -3.8402    0.7850 H   0  0  0  0  0  0  0  0  0  0  0  0
   -1.5981   -2.5525   -0.2507 H   0  0  0  0  0  0  0  0  0  0  0  0
    0.0631   -3.9738   -1.4818 O   0  0  0  0  0  0  0  0  0  0  0  0
   -0.0998    2.6644   -0.0233 C   0  0  0  0  0  0  0  0  0  0  0  0
   -0.9298    2.9190   -0.5415 H   0  0  0  0  0  0  0  0  0  0  0  0
    0.6987    3.0399   -0.5174 H   0  0  0  0  0  0  0  0  0  0  0  0
   -0.1479    3.1238    0.9640 H   0  0  0  0  0  0  0  0  0  0  0  0
    0.0116    1.1683   -0.0234 C   0  0  0  0  0  0  0  0  0  0  0  0
    1.1042    0.3606   -0.0000 C   0  0  0  0  0  0  0  0  0  0  0  0
    2.0568    0.6569    0.0078 H   0  0  0  0  0  0  0  0  0  0  0  0
    0.6599   -0.9443    0.0115 N   0  0  0  0  0  0  0  0  0  0  0  0
   -0.6715   -0.9252    0.0120 C   0  0  0  0  0  0  0  0  0  0  0  0
   -1.2603   -1.7331    0.0210 H   0  0  0  0  0  0  0  0  0  0  0  0
   -1.1042    0.3406    0.0000 N   0  0  0  0  0  0  0  0  0  0  0  0
   -2.0438    0.6335    0.0070 H   0  0  0  0  0  0  0  0  0  0  0  0
  1  5  1  0
  5  6  1  0
  5  9  2  0
  1  2  1  0
  1  3  1  0
  1  4  1  0
  6  7  1  0
  6  8  1  0
 10 14  1  0
 14 15  2  0
 15 17  1  0
 17 18  2  0
 18 20  1  0
 20 14  1  0
 10 11  1  0
 10 12  1  0
 10 13  1  0
 15 16  1  0
 18 19  1  0
 20 21  1  0
M  END
>  <PDB_ID>  (84) 
pdb2po3

>  <RESIDUE_NAME>  (84) 
ASN   HID

>  <FRAG_NAME>  (84) 
ACEM   MIMD

>  <FRAG_ATOM_NUM>  (84) 
fragi: 9  fragj: 12

>  <atom.prop.CHAIN_ID>  (84) 
A A A A A A A A A Z Z Z Z Z Z Z Z Z Z Z Z

>  <atom.prop.IS_HEAVY_ATOM>  (84) 
1 0 0 0 1 1 0 0 1 1 0 0 0 1 1 0 1 1 0 1 0

>  <DIFUSE_FUNC_ATOM>  (84) 
n/a

>  <FINAL_SINGLE_POINT_ENERGY>  (84) 
0

>  <NONCOV_INTER_ENERGY_QM>  (84) 
0

>  <FF_Energy>  (84) 
24.67

>  <QM_Energy>  (84) 
41.23

>  <source>  (84) 
ACEM_MIMD

>  <Index>  (84) 
8204

$$$$
ACEM-pdb2ppg-D-GLN-298:MIMD-pdb2ppg-D-HID-102
     RDKit          3D

 21 20  0  0  0  0  0  0  0  0999 V2000
   -0.4826   -3.3660    2.3148 C   0  0  0  0  0  0  0  0  0  0  0  0
   -0.4402   -2.3741    2.2550 H   0  0  0  0  0  0  0  0  0  0  0  0
    0.1890   -3.7783    1.7080 H   0  0  0  0  0  0  0  0  0  0  0  0
   -0.2518   -3.6615    3.3383 H   0  0  0  0  0  0  0  0  0  0  0  0
   -1.8662   -3.8232    1.8986 C   0  0  0  0  0  0  0  0  0  0  0  0
   -2.3520   -3.3358    0.7544 N   0  0  0  0  0  0  0  0  0  0  0  0
   -3.2600   -3.6098    0.4126 H   0  0  0  0  0  0  0  0  0  0  0  0
   -1.7797   -2.6734    0.2284 H   0  0  0  0  0  0  0  0  0  0  0  0
   -2.4943   -4.6101    2.6066 O   0  0  0  0  0  0  0  0  0  0  0  0
   -0.1817    2.6543    0.0396 C   0  0  0  0  0  0  0  0  0  0  0  0
    0.4895    3.0378    0.6847 H   0  0  0  0  0  0  0  0  0  0  0  0
   -1.1051    2.8660    0.3785 H   0  0  0  0  0  0  0  0  0  0  0  0
   -0.0459    3.1255   -0.9339 H   0  0  0  0  0  0  0  0  0  0  0  0
   -0.0183    1.1677    0.0184 C   0  0  0  0  0  0  0  0  0  0  0  0
    1.0910    0.3914    0.0000 C   0  0  0  0  0  0  0  0  0  0  0  0
    2.0351    0.7057   -0.0088 H   0  0  0  0  0  0  0  0  0  0  0  0
    0.6690   -0.9171   -0.0029 N   0  0  0  0  0  0  0  0  0  0  0  0
   -0.6507   -0.9430   -0.0155 C   0  0  0  0  0  0  0  0  0  0  0  0
   -1.2168   -1.7627   -0.0319 H   0  0  0  0  0  0  0  0  0  0  0  0
   -1.0910    0.3010    0.0000 N   0  0  0  0  0  0  0  0  0  0  0  0
   -2.0530    0.5766   -0.0029 H   0  0  0  0  0  0  0  0  0  0  0  0
  1  5  1  0
  5  6  1  0
  5  9  2  0
  1  2  1  0
  1  3  1  0
  1  4  1  0
  6  7  1  0
  6  8  1  0
 10 14  1  0
 14 15  2  0
 15 17  1  0
 17 18  2  0
 18 20  1  0
 20 14  1  0
 10 11  1  0
 10 12  1  0
 10 13  1  0
 15 16  1  0
 18 19  1  0
 20 21  1  0
M  END
>  <PDB_ID>  (85) 
pdb2ppg

>  <RESIDUE_NAME>  (85) 
GLN   HID

>  <FRAG_NAME>  (85) 
ACEM   MIMD

>  <FRAG_ATOM_NUM>  (85) 
fragi: 9  fragj: 12

>  <atom.prop.CHAIN_ID>  (85) 
A A A A A A A A A Z Z Z Z Z Z Z Z Z Z Z Z

>  <atom.prop.IS_HEAVY_ATOM>  (85) 
1 0 0 0 1 1 0 0 1 1 0 0 0 1 1 0 1 1 0 1 0

>  <DIFUSE_FUNC_ATOM>  (85) 
n/a

>  <FINAL_SINGLE_POINT_ENERGY>  (85) 
0

>  <NONCOV_INTER_ENERGY_QM>  (85) 
0

>  <FF_Energy>  (85) 
3.77

>  <QM_Energy>  (85) 
16.62

>  <source>  (85) 
ACEM_MIMD

>  <Index>  (85) 
8247

$$$$
ACEM-pdb2pt3-A-ASN-437:MIMD-pdb2pt3-A-HID-351
     RDKit          3D

 21 20  0  0  0  0  0  0  0  0999 V2000
   -5.9589   -0.7769   -0.2752 C   0  0  0  0  0  0  0  0  0  0  0  0
   -6.3342   -0.0004   -0.7868 H   0  0  0  0  0  0  0  0  0  0  0  0
   -6.2055   -0.6831    0.6923 H   0  0  0  0  0  0  0  0  0  0  0  0
   -6.4242   -1.6868   -0.6543 H   0  0  0  0  0  0  0  0  0  0  0  0
   -4.4549   -0.7578   -0.3975 C   0  0  0  0  0  0  0  0  0  0  0  0
   -3.8581    0.4159   -0.3540 N   0  0  0  0  0  0  0  0  0  0  0  0
   -4.4104    1.2494   -0.2357 H   0  0  0  0  0  0  0  0  0  0  0  0
   -2.8658    0.4873   -0.4346 H   0  0  0  0  0  0  0  0  0  0  0  0
   -3.8370   -1.8113   -0.6037 O   0  0  0  0  0  0  0  0  0  0  0  0
   -0.1333    2.6487    0.0509 C   0  0  0  0  0  0  0  0  0  0  0  0
   -0.7801    2.8991    0.7704 H   0  0  0  0  0  0  0  0  0  0  0  0
   -0.4742    2.9707   -0.8314 H   0  0  0  0  0  0  0  0  0  0  0  0
    0.8214    3.1337    0.2544 H   0  0  0  0  0  0  0  0  0  0  0  0
   -0.0125    1.1652    0.0071 C   0  0  0  0  0  0  0  0  0  0  0  0
    1.0947    0.3701   -0.0000 C   0  0  0  0  0  0  0  0  0  0  0  0
    2.0408    0.6881   -0.0071 H   0  0  0  0  0  0  0  0  0  0  0  0
    0.6675   -0.9220    0.0054 N   0  0  0  0  0  0  0  0  0  0  0  0
   -0.6550   -0.9317   -0.0124 C   0  0  0  0  0  0  0  0  0  0  0  0
   -1.2289   -1.7481   -0.0312 H   0  0  0  0  0  0  0  0  0  0  0  0
   -1.0947    0.3184   -0.0000 N   0  0  0  0  0  0  0  0  0  0  0  0
   -2.0507    0.5960    0.0034 H   0  0  0  0  0  0  0  0  0  0  0  0
  1  5  1  0
  5  6  1  0
  5  9  2  0
  1  2  1  0
  1  3  1  0
  1  4  1  0
  6  7  1  0
  6  8  1  0
 10 14  1  0
 14 15  2  0
 15 17  1  0
 17 18  2  0
 18 20  1  0
 20 14  1  0
 10 11  1  0
 10 12  1  0
 10 13  1  0
 15 16  1  0
 18 19  1  0
 20 21  1  0
M  END
>  <PDB_ID>  (86) 
pdb2pt3

>  <RESIDUE_NAME>  (86) 
ASN   HID

>  <FRAG_NAME>  (86) 
ACEM   MIMD

>  <FRAG_ATOM_NUM>  (86) 
fragi: 9  fragj: 12

>  <atom.prop.CHAIN_ID>  (86) 
A A A A A A A A A Z Z Z Z Z Z Z Z Z Z Z Z

>  <atom.prop.IS_HEAVY_ATOM>  (86) 
1 0 0 0 1 1 0 0 1 1 0 0 0 1 1 0 1 1 0 1 0

>  <DIFUSE_FUNC_ATOM>  (86) 
n/a

>  <FINAL_SINGLE_POINT_ENERGY>  (86) 
0

>  <NONCOV_INTER_ENERGY_QM>  (86) 
0

>  <FF_Energy>  (86) 
11.71

>  <QM_Energy>  (86) 
32.72

>  <source>  (86) 
ACEM_MIMD

>  <Index>  (86) 
8332

$$$$
ACEM-pdb1n82-A-GLN-53:MIMD-pdb1n82-A-HID-114
     RDKit          3D

 21 20  0  0  0  0  0  0  0  0999 V2000
   -5.4716    0.0079   -0.4816 C   0  0  0  0  0  0  0  0  0  0  0  0
   -6.1631   -0.1429   -1.2290 H   0  0  0  0  0  0  0  0  0  0  0  0
   -5.9743   -0.2027    0.3918 H   0  0  0  0  0  0  0  0  0  0  0  0
   -4.6985   -0.7514   -0.5994 H   0  0  0  0  0  0  0  0  0  0  0  0
   -5.0829    1.4513   -0.4753 C   0  0  0  0  0  0  0  0  0  0  0  0
   -3.7988    1.7539   -0.5144 N   0  0  0  0  0  0  0  0  0  0  0  0
   -3.4672    2.7102   -0.5267 H   0  0  0  0  0  0  0  0  0  0  0  0
   -3.1156    0.9839   -0.5318 H   0  0  0  0  0  0  0  0  0  0  0  0
   -5.9545    2.3456   -0.4119 O   0  0  0  0  0  0  0  0  0  0  0  0
   -0.1087    2.6556    0.0128 C   0  0  0  0  0  0  0  0  0  0  0  0
   -0.8410    2.9247   -0.6125 H   0  0  0  0  0  0  0  0  0  0  0  0
    0.7584    3.0402   -0.3038 H   0  0  0  0  0  0  0  0  0  0  0  0
   -0.3276    3.0582    1.0018 H   0  0  0  0  0  0  0  0  0  0  0  0
   -0.0002    1.1627    0.0084 C   0  0  0  0  0  0  0  0  0  0  0  0
    1.1120    0.3738    0.0000 C   0  0  0  0  0  0  0  0  0  0  0  0
    2.0529    0.6750   -0.0052 H   0  0  0  0  0  0  0  0  0  0  0  0
    0.6624   -0.9340    0.0019 N   0  0  0  0  0  0  0  0  0  0  0  0
   -0.6622   -0.9406   -0.0103 C   0  0  0  0  0  0  0  0  0  0  0  0
   -1.2463   -1.7442   -0.0237 H   0  0  0  0  0  0  0  0  0  0  0  0
   -1.1120    0.3382   -0.0000 N   0  0  0  0  0  0  0  0  0  0  0  0
   -2.0508    0.6139    0.0002 H   0  0  0  0  0  0  0  0  0  0  0  0
  1  5  1  0
  5  6  1  0
  5  9  2  0
  1  2  1  0
  1  3  1  0
  1  4  1  0
  6  7  1  0
  6  8  1  0
 10 14  1  0
 14 15  2  0
 15 17  1  0
 17 18  2  0
 18 20  1  0
 20 14  1  0
 10 11  1  0
 10 12  1  0
 10 13  1  0
 15 16  1  0
 18 19  1  0
 20 21  1  0
M  END
>  <PDB_ID>  (87) 
pdb1n82

>  <RESIDUE_NAME>  (87) 
GLN   HID

>  <FRAG_NAME>  (87) 
ACEM   MIMD

>  <FRAG_ATOM_NUM>  (87) 
fragi: 9  fragj: 12

>  <atom.prop.CHAIN_ID>  (87) 
A A A A A A A A A Z Z Z Z Z Z Z Z Z Z Z Z

>  <atom.prop.IS_HEAVY_ATOM>  (87) 
1 0 0 0 1 1 0 0 1 1 0 0 0 1 1 0 1 1 0 1 0

>  <DIFUSE_FUNC_ATOM>  (87) 
n/a

>  <FINAL_SINGLE_POINT_ENERGY>  (87) 
0

>  <NONCOV_INTER_ENERGY_QM>  (87) 
0

>  <FF_Energy>  (87) 
6.25

>  <QM_Energy>  (87) 
12.11

>  <source>  (87) 
ACEM_MIMD

>  <Index>  (87) 
9097

$$$$
ACEM-pdb1ndh-A-ASN-117:MIMD-pdb1ndh-A-HID-49
     RDKit          3D

 21 20  0  0  0  0  0  0  0  0999 V2000
   -0.6874   -1.6635    3.2379 C   0  0  0  0  0  0  0  0  0  0  0  0
   -1.5973   -1.6832    3.6390 H   0  0  0  0  0  0  0  0  0  0  0  0
   -0.6597   -1.0285    2.4724 H   0  0  0  0  0  0  0  0  0  0  0  0
    0.0213   -1.3290    3.9954 H   0  0  0  0  0  0  0  0  0  0  0  0
   -0.3654   -3.0633    2.7115 C   0  0  0  0  0  0  0  0  0  0  0  0
   -0.3110   -3.2836    1.4117 N   0  0  0  0  0  0  0  0  0  0  0  0
   -0.4856   -2.4862    0.8021 H   0  0  0  0  0  0  0  0  0  0  0  0
   -0.1123   -4.1694    1.0417 H   0  0  0  0  0  0  0  0  0  0  0  0
   -0.1539   -3.9838    3.5019 O   0  0  0  0  0  0  0  0  0  0  0  0
   -0.1422    2.6420    0.0484 C   0  0  0  0  0  0  0  0  0  0  0  0
   -0.9991    2.9073   -0.3937 H   0  0  0  0  0  0  0  0  0  0  0  0
    0.6275    3.0368   -0.4523 H   0  0  0  0  0  0  0  0  0  0  0  0
   -0.1366    3.0386    1.0636 H   0  0  0  0  0  0  0  0  0  0  0  0
   -0.0245    1.1614    0.0233 C   0  0  0  0  0  0  0  0  0  0  0  0
    1.1064    0.3897   -0.0000 C   0  0  0  0  0  0  0  0  0  0  0  0
    2.0377    0.7171   -0.0038 H   0  0  0  0  0  0  0  0  0  0  0  0
    0.6764   -0.9022   -0.0139 N   0  0  0  0  0  0  0  0  0  0  0  0
   -0.6519   -0.9535   -0.0094 C   0  0  0  0  0  0  0  0  0  0  0  0
   -1.2059   -1.7700   -0.0112 H   0  0  0  0  0  0  0  0  0  0  0  0
   -1.1064    0.3046   -0.0000 N   0  0  0  0  0  0  0  0  0  0  0  0
   -2.0613    0.5714   -0.0093 H   0  0  0  0  0  0  0  0  0  0  0  0
  1  5  1  0
  5  6  1  0
  5  9  2  0
  1  2  1  0
  1  3  1  0
  1  4  1  0
  6  7  1  0
  6  8  1  0
 10 14  1  0
 14 15  2  0
 15 17  1  0
 17 18  2  0
 18 20  1  0
 20 14  1  0
 10 11  1  0
 10 12  1  0
 10 13  1  0
 15 16  1  0
 18 19  1  0
 20 21  1  0
M  END
>  <PDB_ID>  (88) 
pdb1ndh

>  <RESIDUE_NAME>  (88) 
ASN   HID

>  <FRAG_NAME>  (88) 
ACEM   MIMD

>  <FRAG_ATOM_NUM>  (88) 
fragi: 9  fragj: 12

>  <atom.prop.CHAIN_ID>  (88) 
A A A A A A A A A Z Z Z Z Z Z Z Z Z Z Z Z

>  <atom.prop.IS_HEAVY_ATOM>  (88) 
1 0 0 0 1 1 0 0 1 1 0 0 0 1 1 0 1 1 0 1 0

>  <DIFUSE_FUNC_ATOM>  (88) 
n/a

>  <FINAL_SINGLE_POINT_ENERGY>  (88) 
0

>  <NONCOV_INTER_ENERGY_QM>  (88) 
0

>  <FF_Energy>  (88) 
2.42

>  <QM_Energy>  (88) 
13.56

>  <source>  (88) 
ACEM_MIMD

>  <Index>  (88) 
9197

$$$$
ACEM-pdb2qzu-A-GLN-37:MIMD-pdb2qzu-A-HID-314
     RDKit          3D

 21 20  0  0  0  0  0  0  0  0999 V2000
   -3.8839   -2.3790    1.4910 C   0  0  0  0  0  0  0  0  0  0  0  0
   -4.8177   -2.4610    1.8233 H   0  0  0  0  0  0  0  0  0  0  0  0
   -3.7658   -1.5243    0.9962 H   0  0  0  0  0  0  0  0  0  0  0  0
   -3.2025   -2.3940    2.3416 H   0  0  0  0  0  0  0  0  0  0  0  0
   -3.6044   -3.5290    0.5449 C   0  0  0  0  0  0  0  0  0  0  0  0
   -2.4172   -3.5410   -0.0443 N   0  0  0  0  0  0  0  0  0  0  0  0
   -2.1535   -4.2878   -0.6804 H   0  0  0  0  0  0  0  0  0  0  0  0
   -1.7636   -2.7807    0.1510 H   0  0  0  0  0  0  0  0  0  0  0  0
   -4.4568   -4.3971    0.3433 O   0  0  0  0  0  0  0  0  0  0  0  0
   -0.1670    2.6569    0.0116 C   0  0  0  0  0  0  0  0  0  0  0  0
   -0.8365    2.9148   -0.6958 H   0  0  0  0  0  0  0  0  0  0  0  0
    0.7204    3.0680   -0.2286 H   0  0  0  0  0  0  0  0  0  0  0  0
   -0.4938    3.0644    0.9682 H   0  0  0  0  0  0  0  0  0  0  0  0
   -0.0167    1.1693    0.0013 C   0  0  0  0  0  0  0  0  0  0  0  0
    1.0914    0.3871   -0.0000 C   0  0  0  0  0  0  0  0  0  0  0  0
    2.0372    0.7033    0.0006 H   0  0  0  0  0  0  0  0  0  0  0  0
    0.6695   -0.9181   -0.0007 N   0  0  0  0  0  0  0  0  0  0  0  0
   -0.6529   -0.9426   -0.0006 C   0  0  0  0  0  0  0  0  0  0  0  0
   -1.2195   -1.7607    0.0009 H   0  0  0  0  0  0  0  0  0  0  0  0
   -1.0914    0.3043   -0.0000 N   0  0  0  0  0  0  0  0  0  0  0  0
   -2.0530    0.5811   -0.0012 H   0  0  0  0  0  0  0  0  0  0  0  0
  1  5  1  0
  5  6  1  0
  5  9  2  0
  1  2  1  0
  1  3  1  0
  1  4  1  0
  6  7  1  0
  6  8  1  0
 10 14  1  0
 14 15  2  0
 15 17  1  0
 17 18  2  0
 18 20  1  0
 20 14  1  0
 10 11  1  0
 10 12  1  0
 10 13  1  0
 15 16  1  0
 18 19  1  0
 20 21  1  0
M  END
>  <PDB_ID>  (89) 
pdb2qzu

>  <RESIDUE_NAME>  (89) 
GLN   HID

>  <FRAG_NAME>  (89) 
ACEM   MIMD

>  <FRAG_ATOM_NUM>  (89) 
fragi: 9  fragj: 12

>  <atom.prop.CHAIN_ID>  (89) 
A A A A A A A A A Z Z Z Z Z Z Z Z Z Z Z Z

>  <atom.prop.IS_HEAVY_ATOM>  (89) 
1 0 0 0 1 1 0 0 1 1 0 0 0 1 1 0 1 1 0 1 0

>  <DIFUSE_FUNC_ATOM>  (89) 
n/a

>  <FINAL_SINGLE_POINT_ENERGY>  (89) 
0

>  <NONCOV_INTER_ENERGY_QM>  (89) 
0

>  <FF_Energy>  (89) 
3.16

>  <QM_Energy>  (89) 
12.88

>  <source>  (89) 
ACEM_MIMD

>  <Index>  (89) 
9226

$$$$
ACEM-pdb2r3v-A-ASN-301:MIMD-pdb2r3v-A-HID-17
     RDKit          3D

 21 20  0  0  0  0  0  0  0  0999 V2000
   -5.3313    0.7600    1.1455 C   0  0  0  0  0  0  0  0  0  0  0  0
   -4.6498    0.2416    1.6608 H   0  0  0  0  0  0  0  0  0  0  0  0
   -5.5653    0.2658    0.3088 H   0  0  0  0  0  0  0  0  0  0  0  0
   -6.2298    0.8501    1.7559 H   0  0  0  0  0  0  0  0  0  0  0  0
   -4.7439    2.0925    0.7719 C   0  0  0  0  0  0  0  0  0  0  0  0
   -3.4682    2.0771    0.4321 N   0  0  0  0  0  0  0  0  0  0  0  0
   -2.9458    1.2259    0.4233 H   0  0  0  0  0  0  0  0  0  0  0  0
   -3.0071    2.9355    0.1750 H   0  0  0  0  0  0  0  0  0  0  0  0
   -5.4279    3.1225    0.7619 O   0  0  0  0  0  0  0  0  0  0  0  0
   -0.1730    2.6539    0.0029 C   0  0  0  0  0  0  0  0  0  0  0  0
    0.7352    3.0676    0.1407 H   0  0  0  0  0  0  0  0  0  0  0  0
   -0.7576    2.9099    0.7828 H   0  0  0  0  0  0  0  0  0  0  0  0
   -0.6096    3.0535   -0.9124 H   0  0  0  0  0  0  0  0  0  0  0  0
   -0.0173    1.1683    0.0022 C   0  0  0  0  0  0  0  0  0  0  0  0
    1.0894    0.3876    0.0000 C   0  0  0  0  0  0  0  0  0  0  0  0
    2.0368    0.7005   -0.0001 H   0  0  0  0  0  0  0  0  0  0  0  0
    0.6684   -0.9239   -0.0026 N   0  0  0  0  0  0  0  0  0  0  0  0
   -0.6511   -0.9410    0.0003 C   0  0  0  0  0  0  0  0  0  0  0  0
   -1.2237   -1.7570    0.0033 H   0  0  0  0  0  0  0  0  0  0  0  0
   -1.0894    0.3089    0.0000 N   0  0  0  0  0  0  0  0  0  0  0  0
   -2.0515    0.5838   -0.0025 H   0  0  0  0  0  0  0  0  0  0  0  0
  1  5  1  0
  5  6  1  0
  5  9  2  0
  1  2  1  0
  1  3  1  0
  1  4  1  0
  6  7  1  0
  6  8  1  0
 10 14  1  0
 14 15  2  0
 15 17  1  0
 17 18  2  0
 18 20  1  0
 20 14  1  0
 10 11  1  0
 10 12  1  0
 10 13  1  0
 15 16  1  0
 18 19  1  0
 20 21  1  0
M  END
>  <PDB_ID>  (90) 
pdb2r3v

>  <RESIDUE_NAME>  (90) 
ASN   HID

>  <FRAG_NAME>  (90) 
ACEM   MIMD

>  <FRAG_ATOM_NUM>  (90) 
fragi: 9  fragj: 12

>  <atom.prop.CHAIN_ID>  (90) 
A A A A A A A A A Z Z Z Z Z Z Z Z Z Z Z Z

>  <atom.prop.IS_HEAVY_ATOM>  (90) 
1 0 0 0 1 1 0 0 1 1 0 0 0 1 1 0 1 1 0 1 0

>  <DIFUSE_FUNC_ATOM>  (90) 
n/a

>  <FINAL_SINGLE_POINT_ENERGY>  (90) 
0

>  <NONCOV_INTER_ENERGY_QM>  (90) 
0

>  <FF_Energy>  (90) 
8.23

>  <QM_Energy>  (90) 
15.22

>  <source>  (90) 
ACEM_MIMD

>  <Index>  (90) 
9275

$$$$
ACEM-pdb1nlq-B-GLN-36:MIMD-pdb1nlq-B-HID-100
     RDKit          3D

 21 20  0  0  0  0  0  0  0  0999 V2000
   -5.0752    1.0128    0.4235 C   0  0  0  0  0  0  0  0  0  0  0  0
   -4.5260    0.5225    1.0956 H   0  0  0  0  0  0  0  0  0  0  0  0
   -6.0270    1.0413    0.7167 H   0  0  0  0  0  0  0  0  0  0  0  0
   -4.7028    2.0342    0.3453 H   0  0  0  0  0  0  0  0  0  0  0  0
   -4.9990    0.2598   -0.9041 C   0  0  0  0  0  0  0  0  0  0  0  0
   -3.7942   -0.1167   -1.2968 N   0  0  0  0  0  0  0  0  0  0  0  0
   -3.6657   -0.6343   -2.1630 H   0  0  0  0  0  0  0  0  0  0  0  0
   -2.9893    0.1194   -0.7184 H   0  0  0  0  0  0  0  0  0  0  0  0
   -6.0102    0.0361   -1.5664 O   0  0  0  0  0  0  0  0  0  0  0  0
   -0.1716    2.6482   -0.0223 C   0  0  0  0  0  0  0  0  0  0  0  0
   -1.1567    2.8635   -0.0241 H   0  0  0  0  0  0  0  0  0  0  0  0
    0.2277    2.9965   -0.8800 H   0  0  0  0  0  0  0  0  0  0  0  0
    0.3005    3.1553    0.8192 H   0  0  0  0  0  0  0  0  0  0  0  0
   -0.0155    1.1652   -0.0012 C   0  0  0  0  0  0  0  0  0  0  0  0
    1.0924    0.3883   -0.0000 C   0  0  0  0  0  0  0  0  0  0  0  0
    2.0369    0.7024    0.0007 H   0  0  0  0  0  0  0  0  0  0  0  0
    0.6681   -0.9176    0.0008 N   0  0  0  0  0  0  0  0  0  0  0  0
   -0.6526   -0.9413    0.0004 C   0  0  0  0  0  0  0  0  0  0  0  0
   -1.2204   -1.7595    0.0013 H   0  0  0  0  0  0  0  0  0  0  0  0
   -1.0924    0.3055    0.0000 N   0  0  0  0  0  0  0  0  0  0  0  0
   -2.0517    0.5823   -0.0006 H   0  0  0  0  0  0  0  0  0  0  0  0
  1  5  1  0
  5  6  1  0
  5  9  2  0
  1  2  1  0
  1  3  1  0
  1  4  1  0
  6  7  1  0
  6  8  1  0
 10 14  1  0
 14 15  2  0
 15 17  1  0
 17 18  2  0
 18 20  1  0
 20 14  1  0
 10 11  1  0
 10 12  1  0
 10 13  1  0
 15 16  1  0
 18 19  1  0
 20 21  1  0
M  END
>  <PDB_ID>  (91) 
pdb1nlq

>  <RESIDUE_NAME>  (91) 
GLN   HID

>  <FRAG_NAME>  (91) 
ACEM   MIMD

>  <FRAG_ATOM_NUM>  (91) 
fragi: 9  fragj: 12

>  <atom.prop.CHAIN_ID>  (91) 
A A A A A A A A A Z Z Z Z Z Z Z Z Z Z Z Z

>  <atom.prop.IS_HEAVY_ATOM>  (91) 
1 0 0 0 1 1 0 0 1 1 0 0 0 1 1 0 1 1 0 1 0

>  <DIFUSE_FUNC_ATOM>  (91) 
n/a

>  <FINAL_SINGLE_POINT_ENERGY>  (91) 
0

>  <NONCOV_INTER_ENERGY_QM>  (91) 
0

>  <FF_Energy>  (91) 
6.13

>  <QM_Energy>  (91) 
11.82

>  <source>  (91) 
ACEM_MIMD

>  <Index>  (91) 
9335

$$$$
ACEM-pdb1nlq-C-GLN-36:MIMD-pdb1nlq-C-HID-100
     RDKit          3D

 21 20  0  0  0  0  0  0  0  0999 V2000
   -5.0672    0.8953    0.3443 C   0  0  0  0  0  0  0  0  0  0  0  0
   -4.5491    0.4182    1.0536 H   0  0  0  0  0  0  0  0  0  0  0  0
   -6.0338    0.9265    0.5986 H   0  0  0  0  0  0  0  0  0  0  0  0
   -4.6936    1.9163    0.2665 H   0  0  0  0  0  0  0  0  0  0  0  0
   -4.9354    0.1105   -0.9593 C   0  0  0  0  0  0  0  0  0  0  0  0
   -3.7095   -0.2733   -1.3048 N   0  0  0  0  0  0  0  0  0  0  0  0
   -3.5515   -0.8081   -2.1482 H   0  0  0  0  0  0  0  0  0  0  0  0
   -2.9291   -0.0160   -0.7015 H   0  0  0  0  0  0  0  0  0  0  0  0
   -5.9238   -0.1528   -1.6388 O   0  0  0  0  0  0  0  0  0  0  0  0
   -0.1739    2.6561   -0.0308 C   0  0  0  0  0  0  0  0  0  0  0  0
   -1.1577    2.8691   -0.0383 H   0  0  0  0  0  0  0  0  0  0  0  0
    0.2302    2.9994   -0.8879 H   0  0  0  0  0  0  0  0  0  0  0  0
    0.2939    3.1660    0.8114 H   0  0  0  0  0  0  0  0  0  0  0  0
   -0.0164    1.1675   -0.0023 C   0  0  0  0  0  0  0  0  0  0  0  0
    1.0922    0.3886    0.0000 C   0  0  0  0  0  0  0  0  0  0  0  0
    2.0369    0.7033    0.0021 H   0  0  0  0  0  0  0  0  0  0  0  0
    0.6680   -0.9165    0.0008 N   0  0  0  0  0  0  0  0  0  0  0  0
   -0.6517   -0.9423    0.0014 C   0  0  0  0  0  0  0  0  0  0  0  0
   -1.2179   -1.7612    0.0043 H   0  0  0  0  0  0  0  0  0  0  0  0
   -1.0922    0.3028   -0.0000 N   0  0  0  0  0  0  0  0  0  0  0  0
   -2.0529    0.5792   -0.0000 H   0  0  0  0  0  0  0  0  0  0  0  0
  1  5  1  0
  5  6  1  0
  5  9  2  0
  1  2  1  0
  1  3  1  0
  1  4  1  0
  6  7  1  0
  6  8  1  0
 10 14  1  0
 14 15  2  0
 15 17  1  0
 17 18  2  0
 18 20  1  0
 20 14  1  0
 10 11  1  0
 10 12  1  0
 10 13  1  0
 15 16  1  0
 18 19  1  0
 20 21  1  0
M  END
>  <PDB_ID>  (92) 
pdb1nlq

>  <RESIDUE_NAME>  (92) 
GLN   HID

>  <FRAG_NAME>  (92) 
ACEM   MIMD

>  <FRAG_ATOM_NUM>  (92) 
fragi: 9  fragj: 12

>  <atom.prop.CHAIN_ID>  (92) 
A A A A A A A A A Z Z Z Z Z Z Z Z Z Z Z Z

>  <atom.prop.IS_HEAVY_ATOM>  (92) 
1 0 0 0 1 1 0 0 1 1 0 0 0 1 1 0 1 1 0 1 0

>  <DIFUSE_FUNC_ATOM>  (92) 
n/a

>  <FINAL_SINGLE_POINT_ENERGY>  (92) 
0

>  <NONCOV_INTER_ENERGY_QM>  (92) 
0

>  <FF_Energy>  (92) 
6.26

>  <QM_Energy>  (92) 
12.14

>  <source>  (92) 
ACEM_MIMD

>  <Index>  (92) 
9336

$$$$
ACEM-pdb1nt4-A-ASN-90:MIMD-pdb1nt4-A-HID-289
     RDKit          3D

 21 20  0  0  0  0  0  0  0  0999 V2000
   -4.1589   -4.3203    1.4059 C   0  0  0  0  0  0  0  0  0  0  0  0
   -4.2247   -4.9851    0.6598 H   0  0  0  0  0  0  0  0  0  0  0  0
   -4.9911   -3.7625    1.4243 H   0  0  0  0  0  0  0  0  0  0  0  0
   -4.1206   -4.8801    2.3404 H   0  0  0  0  0  0  0  0  0  0  0  0
   -2.9805   -3.4528    1.1988 C   0  0  0  0  0  0  0  0  0  0  0  0
   -2.5134   -3.4108   -0.0329 N   0  0  0  0  0  0  0  0  0  0  0  0
   -2.9418   -3.9316   -0.7688 H   0  0  0  0  0  0  0  0  0  0  0  0
   -1.7067   -2.8421   -0.2449 H   0  0  0  0  0  0  0  0  0  0  0  0
   -2.4658   -2.8266    2.1416 O   0  0  0  0  0  0  0  0  0  0  0  0
   -0.1689    2.6538   -0.0862 C   0  0  0  0  0  0  0  0  0  0  0  0
   -0.9617    2.8579   -0.6707 H   0  0  0  0  0  0  0  0  0  0  0  0
    0.6551    3.0321   -0.5219 H   0  0  0  0  0  0  0  0  0  0  0  0
   -0.3091    3.1280    0.8852 H   0  0  0  0  0  0  0  0  0  0  0  0
   -0.0149    1.1672   -0.0084 C   0  0  0  0  0  0  0  0  0  0  0  0
    1.0932    0.3876    0.0000 C   0  0  0  0  0  0  0  0  0  0  0  0
    2.0378    0.7011    0.0032 H   0  0  0  0  0  0  0  0  0  0  0  0
    0.6685   -0.9183    0.0039 N   0  0  0  0  0  0  0  0  0  0  0  0
   -0.6537   -0.9413    0.0045 C   0  0  0  0  0  0  0  0  0  0  0  0
   -1.2202   -1.7600    0.0099 H   0  0  0  0  0  0  0  0  0  0  0  0
   -1.0932    0.3048    0.0000 N   0  0  0  0  0  0  0  0  0  0  0  0
   -2.0526    0.5832    0.0013 H   0  0  0  0  0  0  0  0  0  0  0  0
  1  5  1  0
  5  6  1  0
  5  9  2  0
  1  2  1  0
  1  3  1  0
  1  4  1  0
  6  7  1  0
  6  8  1  0
 10 14  1  0
 14 15  2  0
 15 17  1  0
 17 18  2  0
 18 20  1  0
 20 14  1  0
 10 11  1  0
 10 12  1  0
 10 13  1  0
 15 16  1  0
 18 19  1  0
 20 21  1  0
M  END
>  <PDB_ID>  (93) 
pdb1nt4

>  <RESIDUE_NAME>  (93) 
ASN   HID

>  <FRAG_NAME>  (93) 
ACEM   MIMD

>  <FRAG_ATOM_NUM>  (93) 
fragi: 9  fragj: 12

>  <atom.prop.CHAIN_ID>  (93) 
A A A A A A A A A Z Z Z Z Z Z Z Z Z Z Z Z

>  <atom.prop.IS_HEAVY_ATOM>  (93) 
1 0 0 0 1 1 0 0 1 1 0 0 0 1 1 0 1 1 0 1 0

>  <DIFUSE_FUNC_ATOM>  (93) 
n/a

>  <FINAL_SINGLE_POINT_ENERGY>  (93) 
0

>  <NONCOV_INTER_ENERGY_QM>  (93) 
0

>  <FF_Energy>  (93) 
2.71

>  <QM_Energy>  (93) 
11.95

>  <source>  (93) 
ACEM_MIMD

>  <Index>  (93) 
9487

$$$$
ACEM-pdb1nye-B-GLN-360:MIMD-pdb1nye-F-HID-1003
     RDKit          3D

 21 20  0  0  0  0  0  0  0  0999 V2000
   -1.8782   -0.9572    3.1123 C   0  0  0  0  0  0  0  0  0  0  0  0
   -1.5847   -0.3606    2.3707 H   0  0  0  0  0  0  0  0  0  0  0  0
   -1.4529   -0.6746    3.9670 H   0  0  0  0  0  0  0  0  0  0  0  0
   -2.9611   -0.8881    3.2156 H   0  0  0  0  0  0  0  0  0  0  0  0
   -1.4338   -2.3737    2.7962 C   0  0  0  0  0  0  0  0  0  0  0  0
   -0.5176   -2.5122    1.8478 N   0  0  0  0  0  0  0  0  0  0  0  0
   -0.1621   -3.4292    1.5920 H   0  0  0  0  0  0  0  0  0  0  0  0
   -0.1715   -1.6784    1.3731 H   0  0  0  0  0  0  0  0  0  0  0  0
   -1.9050   -3.3329    3.4079 O   0  0  0  0  0  0  0  0  0  0  0  0
   -0.1860    2.6522    0.0139 C   0  0  0  0  0  0  0  0  0  0  0  0
    0.0940    3.0123   -0.8862 H   0  0  0  0  0  0  0  0  0  0  0  0
    0.4347    3.0350    0.7103 H   0  0  0  0  0  0  0  0  0  0  0  0
   -1.2012    2.9870    0.2269 H   0  0  0  0  0  0  0  0  0  0  0  0
   -0.0187    1.1673   -0.0003 C   0  0  0  0  0  0  0  0  0  0  0  0
    1.0907    0.3905    0.0000 C   0  0  0  0  0  0  0  0  0  0  0  0
    2.0351    0.7062    0.0007 H   0  0  0  0  0  0  0  0  0  0  0  0
    0.6696   -0.9168    0.0003 N   0  0  0  0  0  0  0  0  0  0  0  0
   -0.6509   -0.9433   -0.0000 C   0  0  0  0  0  0  0  0  0  0  0  0
   -1.2172   -1.7624    0.0007 H   0  0  0  0  0  0  0  0  0  0  0  0
   -1.0907    0.3023    0.0000 N   0  0  0  0  0  0  0  0  0  0  0  0
   -2.0529    0.5771    0.0001 H   0  0  0  0  0  0  0  0  0  0  0  0
  1  5  1  0
  5  6  1  0
  5  9  2  0
  1  2  1  0
  1  3  1  0
  1  4  1  0
  6  7  1  0
  6  8  1  0
 10 14  1  0
 14 15  2  0
 15 17  1  0
 17 18  2  0
 18 20  1  0
 20 14  1  0
 10 11  1  0
 10 12  1  0
 10 13  1  0
 15 16  1  0
 18 19  1  0
 20 21  1  0
M  END
>  <PDB_ID>  (94) 
pdb1nye

>  <RESIDUE_NAME>  (94) 
GLN   HID

>  <FRAG_NAME>  (94) 
ACEM   MIMD

>  <FRAG_ATOM_NUM>  (94) 
fragi: 9  fragj: 12

>  <atom.prop.CHAIN_ID>  (94) 
A A A A A A A A A Z Z Z Z Z Z Z Z Z Z Z Z

>  <atom.prop.IS_HEAVY_ATOM>  (94) 
1 0 0 0 1 1 0 0 1 1 0 0 0 1 1 0 1 1 0 1 0

>  <DIFUSE_FUNC_ATOM>  (94) 
n/a

>  <FINAL_SINGLE_POINT_ENERGY>  (94) 
0

>  <NONCOV_INTER_ENERGY_QM>  (94) 
0

>  <FF_Energy>  (94) 
10.62

>  <QM_Energy>  (94) 
18.52

>  <source>  (94) 
ACEM_MIMD

>  <Index>  (94) 
9578

$$$$
ACEM-pdb1ofd-A-ASN-1419:MIMD-pdb1ofd-A-HID-1400
     RDKit          3D

 21 20  0  0  0  0  0  0  0  0999 V2000
   -3.7881    0.0071   -2.0987 C   0  0  0  0  0  0  0  0  0  0  0  0
   -3.6138   -0.9254   -2.3911 H   0  0  0  0  0  0  0  0  0  0  0  0
   -2.9365    0.4860   -1.9233 H   0  0  0  0  0  0  0  0  0  0  0  0
   -4.3029    0.5231   -2.9093 H   0  0  0  0  0  0  0  0  0  0  0  0
   -4.6094   -0.0221   -0.8212 C   0  0  0  0  0  0  0  0  0  0  0  0
   -3.9153    0.0345    0.3061 N   0  0  0  0  0  0  0  0  0  0  0  0
   -2.9190    0.0975    0.2912 H   0  0  0  0  0  0  0  0  0  0  0  0
   -4.3942    0.0141    1.1899 H   0  0  0  0  0  0  0  0  0  0  0  0
   -5.8549   -0.1295   -0.8415 O   0  0  0  0  0  0  0  0  0  0  0  0
   -0.1691    2.6510   -0.1099 C   0  0  0  0  0  0  0  0  0  0  0  0
    0.7394    3.0714    0.0320 H   0  0  0  0  0  0  0  0  0  0  0  0
   -0.7628    2.9335    0.6579 H   0  0  0  0  0  0  0  0  0  0  0  0
   -0.5906    3.0490   -1.0329 H   0  0  0  0  0  0  0  0  0  0  0  0
   -0.0168    1.1649   -0.0696 C   0  0  0  0  0  0  0  0  0  0  0  0
    1.0933    0.3884   -0.0000 C   0  0  0  0  0  0  0  0  0  0  0  0
    2.0366    0.7056    0.0171 H   0  0  0  0  0  0  0  0  0  0  0  0
    0.6712   -0.9175    0.0434 N   0  0  0  0  0  0  0  0  0  0  0  0
   -0.6544   -0.9406    0.0263 C   0  0  0  0  0  0  0  0  0  0  0  0
   -1.2192   -1.7598    0.0334 H   0  0  0  0  0  0  0  0  0  0  0  0
   -1.0933    0.3048   -0.0000 N   0  0  0  0  0  0  0  0  0  0  0  0
   -2.0521    0.5839    0.0252 H   0  0  0  0  0  0  0  0  0  0  0  0
  1  5  1  0
  5  6  1  0
  5  9  2  0
  1  2  1  0
  1  3  1  0
  1  4  1  0
  6  7  1  0
  6  8  1  0
 10 14  1  0
 14 15  2  0
 15 17  1  0
 17 18  2  0
 18 20  1  0
 20 14  1  0
 10 11  1  0
 10 12  1  0
 10 13  1  0
 15 16  1  0
 18 19  1  0
 20 21  1  0
M  END
>  <PDB_ID>  (95) 
pdb1ofd

>  <RESIDUE_NAME>  (95) 
ASN   HID

>  <FRAG_NAME>  (95) 
ACEM   MIMD

>  <FRAG_ATOM_NUM>  (95) 
fragi: 9  fragj: 12

>  <atom.prop.CHAIN_ID>  (95) 
A A A A A A A A A Z Z Z Z Z Z Z Z Z Z Z Z

>  <atom.prop.IS_HEAVY_ATOM>  (95) 
1 0 0 0 1 1 0 0 1 1 0 0 0 1 1 0 1 1 0 1 0

>  <DIFUSE_FUNC_ATOM>  (95) 
n/a

>  <FINAL_SINGLE_POINT_ENERGY>  (95) 
0

>  <NONCOV_INTER_ENERGY_QM>  (95) 
0

>  <FF_Energy>  (95) 
11.29

>  <QM_Energy>  (95) 
24.51

>  <source>  (95) 
ACEM_MIMD

>  <Index>  (95) 
9827

$$$$
ACEM-pdb1ofd-B-ASN-1419:MIMD-pdb1ofd-B-HID-1400
     RDKit          3D

 21 20  0  0  0  0  0  0  0  0999 V2000
   -3.8560    0.1074   -2.1361 C   0  0  0  0  0  0  0  0  0  0  0  0
   -3.7321   -0.8246   -2.4589 H   0  0  0  0  0  0  0  0  0  0  0  0
   -2.9748    0.5444   -1.9898 H   0  0  0  0  0  0  0  0  0  0  0  0
   -4.3838    0.6647   -2.9100 H   0  0  0  0  0  0  0  0  0  0  0  0
   -4.6103    0.0688   -0.8059 C   0  0  0  0  0  0  0  0  0  0  0  0
   -3.8911    0.2768    0.2934 N   0  0  0  0  0  0  0  0  0  0  0  0
   -2.9073    0.4531    0.2144 H   0  0  0  0  0  0  0  0  0  0  0  0
   -4.3265    0.2583    1.1900 H   0  0  0  0  0  0  0  0  0  0  0  0
   -5.8480   -0.1133   -0.7755 O   0  0  0  0  0  0  0  0  0  0  0  0
   -0.1729    2.6596   -0.0285 C   0  0  0  0  0  0  0  0  0  0  0  0
    0.7353    3.0731    0.1231 H   0  0  0  0  0  0  0  0  0  0  0  0
   -0.7663    2.9176    0.7457 H   0  0  0  0  0  0  0  0  0  0  0  0
   -0.5953    3.0792   -0.9416 H   0  0  0  0  0  0  0  0  0  0  0  0
   -0.0199    1.1671   -0.0303 C   0  0  0  0  0  0  0  0  0  0  0  0
    1.0918    0.3880    0.0000 C   0  0  0  0  0  0  0  0  0  0  0  0
    2.0352    0.7061    0.0066 H   0  0  0  0  0  0  0  0  0  0  0  0
    0.6716   -0.9178    0.0220 N   0  0  0  0  0  0  0  0  0  0  0  0
   -0.6517   -0.9423    0.0083 C   0  0  0  0  0  0  0  0  0  0  0  0
   -1.2176   -1.7610    0.0063 H   0  0  0  0  0  0  0  0  0  0  0  0
   -1.0918    0.3050   -0.0000 N   0  0  0  0  0  0  0  0  0  0  0  0
   -2.0533    0.5789    0.0128 H   0  0  0  0  0  0  0  0  0  0  0  0
  1  5  1  0
  5  6  1  0
  5  9  2  0
  1  2  1  0
  1  3  1  0
  1  4  1  0
  6  7  1  0
  6  8  1  0
 10 14  1  0
 14 15  2  0
 15 17  1  0
 17 18  2  0
 18 20  1  0
 20 14  1  0
 10 11  1  0
 10 12  1  0
 10 13  1  0
 15 16  1  0
 18 19  1  0
 20 21  1  0
M  END
>  <PDB_ID>  (96) 
pdb1ofd

>  <RESIDUE_NAME>  (96) 
ASN   HID

>  <FRAG_NAME>  (96) 
ACEM   MIMD

>  <FRAG_ATOM_NUM>  (96) 
fragi: 9  fragj: 12

>  <atom.prop.CHAIN_ID>  (96) 
A A A A A A A A A Z Z Z Z Z Z Z Z Z Z Z Z

>  <atom.prop.IS_HEAVY_ATOM>  (96) 
1 0 0 0 1 1 0 0 1 1 0 0 0 1 1 0 1 1 0 1 0

>  <DIFUSE_FUNC_ATOM>  (96) 
n/a

>  <FINAL_SINGLE_POINT_ENERGY>  (96) 
0

>  <NONCOV_INTER_ENERGY_QM>  (96) 
0

>  <FF_Energy>  (96) 
15.76

>  <QM_Energy>  (96) 
37.85

>  <source>  (96) 
ACEM_MIMD

>  <Index>  (96) 
9833

$$$$
ACEM-pdb2v6f-A-GLN-143:MIMD-pdb2v6f-A-HID-260
     RDKit          3D

 21 20  0  0  0  0  0  0  0  0999 V2000
   -0.8382   -5.1902    0.2838 C   0  0  0  0  0  0  0  0  0  0  0  0
   -0.8611   -6.1838    0.2077 H   0  0  0  0  0  0  0  0  0  0  0  0
   -1.0593   -4.9151    1.2162 H   0  0  0  0  0  0  0  0  0  0  0  0
    0.1687   -4.8455    0.0485 H   0  0  0  0  0  0  0  0  0  0  0  0
   -1.8747   -4.6067   -0.6563 C   0  0  0  0  0  0  0  0  0  0  0  0
   -1.8624   -3.2859   -0.8006 N   0  0  0  0  0  0  0  0  0  0  0  0
   -2.5186   -2.8230   -1.4254 H   0  0  0  0  0  0  0  0  0  0  0  0
   -1.1834   -2.7396   -0.2740 H   0  0  0  0  0  0  0  0  0  0  0  0
   -2.6895   -5.3373   -1.2398 O   0  0  0  0  0  0  0  0  0  0  0  0
   -0.1665    2.6628   -0.0022 C   0  0  0  0  0  0  0  0  0  0  0  0
   -1.0504    2.8964   -0.4336 H   0  0  0  0  0  0  0  0  0  0  0  0
    0.5681    3.0641   -0.5681 H   0  0  0  0  0  0  0  0  0  0  0  0
   -0.1291    3.1074    0.9923 H   0  0  0  0  0  0  0  0  0  0  0  0
   -0.0138    1.1688   -0.0332 C   0  0  0  0  0  0  0  0  0  0  0  0
    1.0915    0.3836   -0.0000 C   0  0  0  0  0  0  0  0  0  0  0  0
    2.0385    0.6970    0.0099 H   0  0  0  0  0  0  0  0  0  0  0  0
    0.6678   -0.9225    0.0185 N   0  0  0  0  0  0  0  0  0  0  0  0
   -0.6540   -0.9391    0.0147 C   0  0  0  0  0  0  0  0  0  0  0  0
   -1.2256   -1.7557    0.0214 H   0  0  0  0  0  0  0  0  0  0  0  0
   -1.0915    0.3091   -0.0000 N   0  0  0  0  0  0  0  0  0  0  0  0
   -2.0507    0.5874    0.0115 H   0  0  0  0  0  0  0  0  0  0  0  0
  1  5  1  0
  5  6  1  0
  5  9  2  0
  1  2  1  0
  1  3  1  0
  1  4  1  0
  6  7  1  0
  6  8  1  0
 10 14  1  0
 14 15  2  0
 15 17  1  0
 17 18  2  0
 18 20  1  0
 20 14  1  0
 10 11  1  0
 10 12  1  0
 10 13  1  0
 15 16  1  0
 18 19  1  0
 20 21  1  0
M  END
>  <PDB_ID>  (97) 
pdb2v6f

>  <RESIDUE_NAME>  (97) 
GLN   HID

>  <FRAG_NAME>  (97) 
ACEM   MIMD

>  <FRAG_ATOM_NUM>  (97) 
fragi: 9  fragj: 12

>  <atom.prop.CHAIN_ID>  (97) 
A A A A A A A A A Z Z Z Z Z Z Z Z Z Z Z Z

>  <atom.prop.IS_HEAVY_ATOM>  (97) 
1 0 0 0 1 1 0 0 1 1 0 0 0 1 1 0 1 1 0 1 0

>  <DIFUSE_FUNC_ATOM>  (97) 
n/a

>  <FINAL_SINGLE_POINT_ENERGY>  (97) 
0

>  <NONCOV_INTER_ENERGY_QM>  (97) 
0

>  <FF_Energy>  (97) 
12.29

>  <QM_Energy>  (97) 
26.85

>  <source>  (97) 
ACEM_MIMD

>  <Index>  (97) 
9908

$$$$
ACEM-pdb1p32-B-GLN-97:MIMD-pdb1p32-B-HID-265
     RDKit          3D

 21 20  0  0  0  0  0  0  0  0999 V2000
    3.1455   -0.9622   -2.8589 C   0  0  0  0  0  0  0  0  0  0  0  0
    2.7989   -1.8637   -2.5987 H   0  0  0  0  0  0  0  0  0  0  0  0
    3.4687   -0.4818   -2.0430 H   0  0  0  0  0  0  0  0  0  0  0  0
    3.9830   -1.0928   -3.5441 H   0  0  0  0  0  0  0  0  0  0  0  0
    2.0082   -0.1667   -3.4693 C   0  0  0  0  0  0  0  0  0  0  0  0
    0.8987   -0.0671   -2.7472 N   0  0  0  0  0  0  0  0  0  0  0  0
    0.0997    0.4626   -3.0855 H   0  0  0  0  0  0  0  0  0  0  0  0
    0.8588   -0.5328   -1.8413 H   0  0  0  0  0  0  0  0  0  0  0  0
    2.1216    0.3459   -4.5834 O   0  0  0  0  0  0  0  0  0  0  0  0
   -0.1746    2.6558   -0.0355 C   0  0  0  0  0  0  0  0  0  0  0  0
   -1.1497    2.8671   -0.1587 H   0  0  0  0  0  0  0  0  0  0  0  0
    0.3326    3.0077   -0.8289 H   0  0  0  0  0  0  0  0  0  0  0  0
    0.1854    3.1529    0.8652 H   0  0  0  0  0  0  0  0  0  0  0  0
   -0.0166    1.1671   -0.0005 C   0  0  0  0  0  0  0  0  0  0  0  0
    1.0908    0.3886   -0.0000 C   0  0  0  0  0  0  0  0  0  0  0  0
    2.0367    0.7021    0.0010 H   0  0  0  0  0  0  0  0  0  0  0  0
    0.6682   -0.9186   -0.0002 N   0  0  0  0  0  0  0  0  0  0  0  0
   -0.6516   -0.9417    0.0007 C   0  0  0  0  0  0  0  0  0  0  0  0
   -1.2202   -1.7593    0.0029 H   0  0  0  0  0  0  0  0  0  0  0  0
   -1.0908    0.3046    0.0000 N   0  0  0  0  0  0  0  0  0  0  0  0
   -2.0524    0.5811   -0.0008 H   0  0  0  0  0  0  0  0  0  0  0  0
  1  5  1  0
  5  6  1  0
  5  9  2  0
  1  2  1  0
  1  3  1  0
  1  4  1  0
  6  7  1  0
  6  8  1  0
 10 14  1  0
 14 15  2  0
 15 17  1  0
 17 18  2  0
 18 20  1  0
 20 14  1  0
 10 11  1  0
 10 12  1  0
 10 13  1  0
 15 16  1  0
 18 19  1  0
 20 21  1  0
M  END
>  <PDB_ID>  (98) 
pdb1p32

>  <RESIDUE_NAME>  (98) 
GLN   HID

>  <FRAG_NAME>  (98) 
ACEM   MIMD

>  <FRAG_ATOM_NUM>  (98) 
fragi: 9  fragj: 12

>  <atom.prop.CHAIN_ID>  (98) 
A A A A A A A A A Z Z Z Z Z Z Z Z Z Z Z Z

>  <atom.prop.IS_HEAVY_ATOM>  (98) 
1 0 0 0 1 1 0 0 1 1 0 0 0 1 1 0 1 1 0 1 0

>  <DIFUSE_FUNC_ATOM>  (98) 
n/a

>  <FINAL_SINGLE_POINT_ENERGY>  (98) 
0

>  <NONCOV_INTER_ENERGY_QM>  (98) 
0

>  <FF_Energy>  (98) 
-5.51

>  <QM_Energy>  (98) 
-0.21

>  <source>  (98) 
ACEM_MIMD

>  <Index>  (98) 
10169

$$$$
ACEM-pdb1pvw-C-ASN-106:MIMD-pdb1pvw-C-HID-147
     RDKit          3D

 21 20  0  0  0  0  0  0  0  0999 V2000
   -5.8921    2.0691    0.1466 C   0  0  0  0  0  0  0  0  0  0  0  0
   -6.1000    1.5989    0.9968 H   0  0  0  0  0  0  0  0  0  0  0  0
   -6.3351    1.6157   -0.6189 H   0  0  0  0  0  0  0  0  0  0  0  0
   -6.2668    3.0905    0.2114 H   0  0  0  0  0  0  0  0  0  0  0  0
   -4.3575    1.9913   -0.0775 C   0  0  0  0  0  0  0  0  0  0  0  0
   -3.7757    0.8102    0.1408 N   0  0  0  0  0  0  0  0  0  0  0  0
   -4.3439    0.0349    0.4295 H   0  0  0  0  0  0  0  0  0  0  0  0
   -2.7967    0.7022    0.0187 H   0  0  0  0  0  0  0  0  0  0  0  0
   -3.7133    2.9982   -0.4252 O   0  0  0  0  0  0  0  0  0  0  0  0
   -0.1797    2.6569   -0.0046 C   0  0  0  0  0  0  0  0  0  0  0  0
   -0.9192    2.8988   -0.6400 H   0  0  0  0  0  0  0  0  0  0  0  0
    0.6753    3.0702   -0.3306 H   0  0  0  0  0  0  0  0  0  0  0  0
   -0.4134    3.0561    0.9824 H   0  0  0  0  0  0  0  0  0  0  0  0
   -0.0185    1.1745   -0.0101 C   0  0  0  0  0  0  0  0  0  0  0  0
    1.0977    0.3963    0.0000 C   0  0  0  0  0  0  0  0  0  0  0  0
    2.0392    0.7103    0.0039 H   0  0  0  0  0  0  0  0  0  0  0  0
    0.6747   -0.9217    0.0050 N   0  0  0  0  0  0  0  0  0  0  0  0
   -0.6561   -0.9500    0.0052 C   0  0  0  0  0  0  0  0  0  0  0  0
   -1.2175   -1.7674    0.0095 H   0  0  0  0  0  0  0  0  0  0  0  0
   -1.0977    0.3008   -0.0000 N   0  0  0  0  0  0  0  0  0  0  0  0
   -2.0569    0.5766    0.0020 H   0  0  0  0  0  0  0  0  0  0  0  0
  1  5  1  0
  5  6  1  0
  5  9  2  0
  1  2  1  0
  1  3  1  0
  1  4  1  0
  6  7  1  0
  6  8  1  0
 10 14  1  0
 14 15  2  0
 15 17  1  0
 17 18  2  0
 18 20  1  0
 20 14  1  0
 10 11  1  0
 10 12  1  0
 10 13  1  0
 15 16  1  0
 18 19  1  0
 20 21  1  0
M  END
>  <PDB_ID>  (99) 
pdb1pvw

>  <RESIDUE_NAME>  (99) 
ASN   HID

>  <FRAG_NAME>  (99) 
ACEM   MIMD

>  <FRAG_ATOM_NUM>  (99) 
fragi: 9  fragj: 12

>  <atom.prop.CHAIN_ID>  (99) 
A A A A A A A A A Z Z Z Z Z Z Z Z Z Z Z Z

>  <atom.prop.IS_HEAVY_ATOM>  (99) 
1 0 0 0 1 1 0 0 1 1 0 0 0 1 1 0 1 1 0 1 0

>  <DIFUSE_FUNC_ATOM>  (99) 
n/a

>  <FINAL_SINGLE_POINT_ENERGY>  (99) 
0

>  <NONCOV_INTER_ENERGY_QM>  (99) 
0

>  <FF_Energy>  (99) 
18.88

>  <QM_Energy>  (99) 
59.97

>  <source>  (99) 
ACEM_MIMD

>  <Index>  (99) 
10543

$$$$
ACEM-pdb2wc7-A-GLN-80:MIMD-pdb2wc7-A-HID-90
     RDKit          3D

 21 20  0  0  0  0  0  0  0  0999 V2000
   -3.5386    2.5077    2.8481 C   0  0  0  0  0  0  0  0  0  0  0  0
   -2.5692    2.6170    2.6278 H   0  0  0  0  0  0  0  0  0  0  0  0
   -3.6916    2.7436    3.8077 H   0  0  0  0  0  0  0  0  0  0  0  0
   -4.1187    3.1869    2.2235 H   0  0  0  0  0  0  0  0  0  0  0  0
   -3.9199    1.0553    2.6403 C   0  0  0  0  0  0  0  0  0  0  0  0
   -3.2746    0.4049    1.6786 N   0  0  0  0  0  0  0  0  0  0  0  0
   -3.4674   -0.5754    1.4907 H   0  0  0  0  0  0  0  0  0  0  0  0
   -2.5796    0.9068    1.1276 H   0  0  0  0  0  0  0  0  0  0  0  0
   -4.7856    0.5232    3.3366 O   0  0  0  0  0  0  0  0  0  0  0  0
   -0.1708    2.6528   -0.0791 C   0  0  0  0  0  0  0  0  0  0  0  0
    0.6215    3.0778    0.3680 H   0  0  0  0  0  0  0  0  0  0  0  0
   -1.0019    2.9099    0.4228 H   0  0  0  0  0  0  0  0  0  0  0  0
   -0.2444    3.0275   -1.1000 H   0  0  0  0  0  0  0  0  0  0  0  0
   -0.0155    1.1667   -0.0049 C   0  0  0  0  0  0  0  0  0  0  0  0
    1.0917    0.3875    0.0000 C   0  0  0  0  0  0  0  0  0  0  0  0
    2.0376    0.7012    0.0032 H   0  0  0  0  0  0  0  0  0  0  0  0
    0.6681   -0.9185    0.0015 N   0  0  0  0  0  0  0  0  0  0  0  0
   -0.6525   -0.9412    0.0034 C   0  0  0  0  0  0  0  0  0  0  0  0
   -1.2205   -1.7592    0.0085 H   0  0  0  0  0  0  0  0  0  0  0  0
   -1.0917    0.3056   -0.0000 N   0  0  0  0  0  0  0  0  0  0  0  0
   -2.0522    0.5829    0.0001 H   0  0  0  0  0  0  0  0  0  0  0  0
  1  5  1  0
  5  6  1  0
  5  9  2  0
  1  2  1  0
  1  3  1  0
  1  4  1  0
  6  7  1  0
  6  8  1  0
 10 14  1  0
 14 15  2  0
 15 17  1  0
 17 18  2  0
 18 20  1  0
 20 14  1  0
 10 11  1  0
 10 12  1  0
 10 13  1  0
 15 16  1  0
 18 19  1  0
 20 21  1  0
M  END
>  <PDB_ID>  (100) 
pdb2wc7

>  <RESIDUE_NAME>  (100) 
GLN   HID

>  <FRAG_NAME>  (100) 
ACEM   MIMD

>  <FRAG_ATOM_NUM>  (100) 
fragi: 9  fragj: 12

>  <atom.prop.CHAIN_ID>  (100) 
A A A A A A A A A Z Z Z Z Z Z Z Z Z Z Z Z

>  <atom.prop.IS_HEAVY_ATOM>  (100) 
1 0 0 0 1 1 0 0 1 1 0 0 0 1 1 0 1 1 0 1 0

>  <DIFUSE_FUNC_ATOM>  (100) 
n/a

>  <FINAL_SINGLE_POINT_ENERGY>  (100) 
0

>  <NONCOV_INTER_ENERGY_QM>  (100) 
0

>  <FF_Energy>  (100) 
8.4

>  <QM_Energy>  (100) 
14.45

>  <source>  (100) 
ACEM_MIMD

>  <Index>  (100) 
10704

$$$$
ACEM-pdb1qgk-A-ASN-377:MIMD-pdb1qgk-A-HID-374
     RDKit          3D

 21 20  0  0  0  0  0  0  0  0999 V2000
   -4.4548    2.4221   -0.2180 C   0  0  0  0  0  0  0  0  0  0  0  0
   -3.6360    2.2804   -0.7697 H   0  0  0  0  0  0  0  0  0  0  0  0
   -4.2322    2.9684    0.5867 H   0  0  0  0  0  0  0  0  0  0  0  0
   -5.1776    2.9766   -0.8166 H   0  0  0  0  0  0  0  0  0  0  0  0
   -4.9725    1.0742    0.2378 C   0  0  0  0  0  0  0  0  0  0  0  0
   -4.1169    0.0655    0.2152 N   0  0  0  0  0  0  0  0  0  0  0  0
   -3.1728    0.2214   -0.0904 H   0  0  0  0  0  0  0  0  0  0  0  0
   -4.4027   -0.8475    0.4996 H   0  0  0  0  0  0  0  0  0  0  0  0
   -6.1440    0.9398    0.5820 O   0  0  0  0  0  0  0  0  0  0  0  0
   -0.1788    2.6576    0.0085 C   0  0  0  0  0  0  0  0  0  0  0  0
    0.7183    3.0712    0.1989 H   0  0  0  0  0  0  0  0  0  0  0  0
   -0.8084    2.9036    0.7544 H   0  0  0  0  0  0  0  0  0  0  0  0
   -0.5637    3.0618   -0.9278 H   0  0  0  0  0  0  0  0  0  0  0  0
   -0.0179    1.1680    0.0020 C   0  0  0  0  0  0  0  0  0  0  0  0
    1.0912    0.3894    0.0000 C   0  0  0  0  0  0  0  0  0  0  0  0
    2.0358    0.7047   -0.0004 H   0  0  0  0  0  0  0  0  0  0  0  0
    0.6694   -0.9174    0.0002 N   0  0  0  0  0  0  0  0  0  0  0  0
   -0.6515   -0.9429   -0.0022 C   0  0  0  0  0  0  0  0  0  0  0  0
   -1.2180   -1.7617   -0.0037 H   0  0  0  0  0  0  0  0  0  0  0  0
   -1.0912    0.3030   -0.0000 N   0  0  0  0  0  0  0  0  0  0  0  0
   -2.0531    0.5789   -0.0002 H   0  0  0  0  0  0  0  0  0  0  0  0
  1  5  1  0
  5  6  1  0
  5  9  2  0
  1  2  1  0
  1  3  1  0
  1  4  1  0
  6  7  1  0
  6  8  1  0
 10 14  1  0
 14 15  2  0
 15 17  1  0
 17 18  2  0
 18 20  1  0
 20 14  1  0
 10 11  1  0
 10 12  1  0
 10 13  1  0
 15 16  1  0
 18 19  1  0
 20 21  1  0
M  END
>  <PDB_ID>  (101) 
pdb1qgk

>  <RESIDUE_NAME>  (101) 
ASN   HID

>  <FRAG_NAME>  (101) 
ACEM   MIMD

>  <FRAG_ATOM_NUM>  (101) 
fragi: 9  fragj: 12

>  <atom.prop.CHAIN_ID>  (101) 
A A A A A A A A A Z Z Z Z Z Z Z Z Z Z Z Z

>  <atom.prop.IS_HEAVY_ATOM>  (101) 
1 0 0 0 1 1 0 0 1 1 0 0 0 1 1 0 1 1 0 1 0

>  <DIFUSE_FUNC_ATOM>  (101) 
n/a

>  <FINAL_SINGLE_POINT_ENERGY>  (101) 
0

>  <NONCOV_INTER_ENERGY_QM>  (101) 
0

>  <FF_Energy>  (101) 
7.91

>  <QM_Energy>  (101) 
14.98

>  <source>  (101) 
ACEM_MIMD

>  <Index>  (101) 
10953

$$$$
ACEM-pdb1qtn-A-ASN-261:MIMD-pdb1qtn-A-HID-242
     RDKit          3D

 21 20  0  0  0  0  0  0  0  0999 V2000
   -4.0750   -3.5377    1.0751 C   0  0  0  0  0  0  0  0  0  0  0  0
   -4.6858   -3.7518    1.8357 H   0  0  0  0  0  0  0  0  0  0  0  0
   -4.3569   -4.0464    0.2635 H   0  0  0  0  0  0  0  0  0  0  0  0
   -4.1364   -2.4706    0.8620 H   0  0  0  0  0  0  0  0  0  0  0  0
   -2.6660   -3.9978    1.4557 C   0  0  0  0  0  0  0  0  0  0  0  0
   -1.6875   -3.2804    0.9529 N   0  0  0  0  0  0  0  0  0  0  0  0
   -1.8669   -2.4891    0.3686 H   0  0  0  0  0  0  0  0  0  0  0  0
   -0.7279   -3.5258    1.1547 H   0  0  0  0  0  0  0  0  0  0  0  0
   -2.5129   -4.8994    2.2792 O   0  0  0  0  0  0  0  0  0  0  0  0
   -0.0902    2.6355   -0.0236 C   0  0  0  0  0  0  0  0  0  0  0  0
   -0.8359    2.8769   -0.6604 H   0  0  0  0  0  0  0  0  0  0  0  0
    0.7701    3.0078   -0.3974 H   0  0  0  0  0  0  0  0  0  0  0  0
   -0.2858    3.1113    0.9374 H   0  0  0  0  0  0  0  0  0  0  0  0
    0.0200    1.1611    0.0421 C   0  0  0  0  0  0  0  0  0  0  0  0
    1.0977    0.3563    0.0000 C   0  0  0  0  0  0  0  0  0  0  0  0
    2.0568    0.6477   -0.0125 H   0  0  0  0  0  0  0  0  0  0  0  0
    0.6510   -0.9385   -0.0223 N   0  0  0  0  0  0  0  0  0  0  0  0
   -0.6709   -0.9081   -0.0198 C   0  0  0  0  0  0  0  0  0  0  0  0
   -1.2606   -1.7284   -0.0309 H   0  0  0  0  0  0  0  0  0  0  0  0
   -1.0977    0.3292    0.0000 N   0  0  0  0  0  0  0  0  0  0  0  0
   -2.0374    0.6369   -0.0118 H   0  0  0  0  0  0  0  0  0  0  0  0
  1  5  1  0
  5  6  1  0
  5  9  2  0
  1  2  1  0
  1  3  1  0
  1  4  1  0
  6  7  1  0
  6  8  1  0
 10 14  1  0
 14 15  2  0
 15 17  1  0
 17 18  2  0
 18 20  1  0
 20 14  1  0
 10 11  1  0
 10 12  1  0
 10 13  1  0
 15 16  1  0
 18 19  1  0
 20 21  1  0
M  END
>  <PDB_ID>  (102) 
pdb1qtn

>  <RESIDUE_NAME>  (102) 
ASN   HID

>  <FRAG_NAME>  (102) 
ACEM   MIMD

>  <FRAG_ATOM_NUM>  (102) 
fragi: 9  fragj: 12

>  <atom.prop.CHAIN_ID>  (102) 
A A A A A A A A A Z Z Z Z Z Z Z Z Z Z Z Z

>  <atom.prop.IS_HEAVY_ATOM>  (102) 
1 0 0 0 1 1 0 0 1 1 0 0 0 1 1 0 1 1 0 1 0

>  <DIFUSE_FUNC_ATOM>  (102) 
n/a

>  <FINAL_SINGLE_POINT_ENERGY>  (102) 
0

>  <NONCOV_INTER_ENERGY_QM>  (102) 
0

>  <FF_Energy>  (102) 
12.13

>  <QM_Energy>  (102) 
24.97

>  <source>  (102) 
ACEM_MIMD

>  <Index>  (102) 
11272

$$$$
ACEM-pdb1r6k-A-GLN-140:MIMD-pdb1r6k-A-HID-78
     RDKit          3D

 21 20  0  0  0  0  0  0  0  0999 V2000
   -5.5669   -0.5464    1.8361 C   0  0  0  0  0  0  0  0  0  0  0  0
   -5.6484   -1.5332    1.7204 H   0  0  0  0  0  0  0  0  0  0  0  0
   -6.4093   -0.0981    1.5482 H   0  0  0  0  0  0  0  0  0  0  0  0
   -5.4002   -0.3311    2.8916 H   0  0  0  0  0  0  0  0  0  0  0  0
   -4.4228   -0.0490    0.9381 C   0  0  0  0  0  0  0  0  0  0  0  0
   -3.2423    0.1447    1.5319 N   0  0  0  0  0  0  0  0  0  0  0  0
   -2.4449    0.4570    0.9983 H   0  0  0  0  0  0  0  0  0  0  0  0
   -3.1667   -0.0291    2.5312 H   0  0  0  0  0  0  0  0  0  0  0  0
   -4.6043    0.1676   -0.2704 O   0  0  0  0  0  0  0  0  0  0  0  0
   -0.1957    2.6478   -0.0806 C   0  0  0  0  0  0  0  0  0  0  0  0
    0.7125    3.0740   -0.1262 H   0  0  0  0  0  0  0  0  0  0  0  0
   -0.6541    2.9543    0.7586 H   0  0  0  0  0  0  0  0  0  0  0  0
   -0.7823    2.9668   -0.9422 H   0  0  0  0  0  0  0  0  0  0  0  0
   -0.0203    1.1687   -0.0089 C   0  0  0  0  0  0  0  0  0  0  0  0
    1.0910    0.3946    0.0000 C   0  0  0  0  0  0  0  0  0  0  0  0
    2.0343    0.7107    0.0034 H   0  0  0  0  0  0  0  0  0  0  0  0
    0.6703   -0.9173    0.0043 N   0  0  0  0  0  0  0  0  0  0  0  0
   -0.6500   -0.9458    0.0047 C   0  0  0  0  0  0  0  0  0  0  0  0
   -1.2155   -1.7653    0.0092 H   0  0  0  0  0  0  0  0  0  0  0  0
   -1.0910    0.2997   -0.0000 N   0  0  0  0  0  0  0  0  0  0  0  0
   -2.0538    0.5741    0.0017 H   0  0  0  0  0  0  0  0  0  0  0  0
  1  5  1  0
  5  6  1  0
  5  9  2  0
  1  2  1  0
  1  3  1  0
  1  4  1  0
  6  7  1  0
  6  8  1  0
 10 14  1  0
 14 15  2  0
 15 17  1  0
 17 18  2  0
 18 20  1  0
 20 14  1  0
 10 11  1  0
 10 12  1  0
 10 13  1  0
 15 16  1  0
 18 19  1  0
 20 21  1  0
M  END
>  <PDB_ID>  (103) 
pdb1r6k

>  <RESIDUE_NAME>  (103) 
GLN   HID

>  <FRAG_NAME>  (103) 
ACEM   MIMD

>  <FRAG_ATOM_NUM>  (103) 
fragi: 9  fragj: 12

>  <atom.prop.CHAIN_ID>  (103) 
A A A A A A A A A Z Z Z Z Z Z Z Z Z Z Z Z

>  <atom.prop.IS_HEAVY_ATOM>  (103) 
1 0 0 0 1 1 0 0 1 1 0 0 0 1 1 0 1 1 0 1 0

>  <DIFUSE_FUNC_ATOM>  (103) 
n/a

>  <FINAL_SINGLE_POINT_ENERGY>  (103) 
0

>  <NONCOV_INTER_ENERGY_QM>  (103) 
0

>  <FF_Energy>  (103) 
10.69

>  <QM_Energy>  (103) 
22.86

>  <source>  (103) 
ACEM_MIMD

>  <Index>  (103) 
11498

$$$$
ACEM-pdb1r8w-B-GLN-437:MIMD-pdb1r8w-B-HID-446
     RDKit          3D

 21 20  0  0  0  0  0  0  0  0999 V2000
   -1.2338   -4.0740   -2.8173 C   0  0  0  0  0  0  0  0  0  0  0  0
   -1.3232   -3.4456   -3.5935 H   0  0  0  0  0  0  0  0  0  0  0  0
   -1.2825   -5.0177   -3.1534 H   0  0  0  0  0  0  0  0  0  0  0  0
   -0.2577   -3.9201   -2.3572 H   0  0  0  0  0  0  0  0  0  0  0  0
   -2.4001   -3.8377   -1.8689 C   0  0  0  0  0  0  0  0  0  0  0  0
   -2.1388   -3.1790   -0.7434 N   0  0  0  0  0  0  0  0  0  0  0  0
   -2.8694   -2.9759   -0.0752 H   0  0  0  0  0  0  0  0  0  0  0  0
   -1.1788   -2.8806   -0.5640 H   0  0  0  0  0  0  0  0  0  0  0  0
   -3.5261   -4.2408   -2.1534 O   0  0  0  0  0  0  0  0  0  0  0  0
   -0.1806    2.6571    0.0042 C   0  0  0  0  0  0  0  0  0  0  0  0
   -1.1197    2.8718   -0.2870 H   0  0  0  0  0  0  0  0  0  0  0  0
    0.4577    3.0427   -0.6713 H   0  0  0  0  0  0  0  0  0  0  0  0
    0.0065    3.1173    0.9744 H   0  0  0  0  0  0  0  0  0  0  0  0
   -0.0193    1.1676    0.0033 C   0  0  0  0  0  0  0  0  0  0  0  0
    1.0910    0.3919   -0.0000 C   0  0  0  0  0  0  0  0  0  0  0  0
    2.0350    0.7071    0.0002 H   0  0  0  0  0  0  0  0  0  0  0  0
    0.6692   -0.9169   -0.0017 N   0  0  0  0  0  0  0  0  0  0  0  0
   -0.6499   -0.9442   -0.0016 C   0  0  0  0  0  0  0  0  0  0  0  0
   -1.2160   -1.7627   -0.0024 H   0  0  0  0  0  0  0  0  0  0  0  0
   -1.0910    0.3016    0.0000 N   0  0  0  0  0  0  0  0  0  0  0  0
   -2.0536    0.5760   -0.0014 H   0  0  0  0  0  0  0  0  0  0  0  0
  1  5  1  0
  5  6  1  0
  5  9  2  0
  1  2  1  0
  1  3  1  0
  1  4  1  0
  6  7  1  0
  6  8  1  0
 10 14  1  0
 14 15  2  0
 15 17  1  0
 17 18  2  0
 18 20  1  0
 20 14  1  0
 10 11  1  0
 10 12  1  0
 10 13  1  0
 15 16  1  0
 18 19  1  0
 20 21  1  0
M  END
>  <PDB_ID>  (104) 
pdb1r8w

>  <RESIDUE_NAME>  (104) 
GLN   HID

>  <FRAG_NAME>  (104) 
ACEM   MIMD

>  <FRAG_ATOM_NUM>  (104) 
fragi: 9  fragj: 12

>  <atom.prop.CHAIN_ID>  (104) 
A A A A A A A A A Z Z Z Z Z Z Z Z Z Z Z Z

>  <atom.prop.IS_HEAVY_ATOM>  (104) 
1 0 0 0 1 1 0 0 1 1 0 0 0 1 1 0 1 1 0 1 0

>  <DIFUSE_FUNC_ATOM>  (104) 
n/a

>  <FINAL_SINGLE_POINT_ENERGY>  (104) 
0

>  <NONCOV_INTER_ENERGY_QM>  (104) 
0

>  <FF_Energy>  (104) 
9.94

>  <QM_Energy>  (104) 
16.14

>  <source>  (104) 
ACEM_MIMD

>  <Index>  (104) 
11554

$$$$
ACEM-pdb1rfe-A-ASN-64:MIMD-pdb1rfe-A-HID-38
     RDKit          3D

 21 20  0  0  0  0  0  0  0  0999 V2000
   -5.6871    1.4458    1.9577 C   0  0  0  0  0  0  0  0  0  0  0  0
   -5.9343    2.2516    1.4120 H   0  0  0  0  0  0  0  0  0  0  0  0
   -5.3227    1.7510    2.8418 H   0  0  0  0  0  0  0  0  0  0  0  0
   -6.5963    0.8752    2.1474 H   0  0  0  0  0  0  0  0  0  0  0  0
   -4.6130    0.6777    1.2294 C   0  0  0  0  0  0  0  0  0  0  0  0
   -3.5498    1.3605    0.7223 N   0  0  0  0  0  0  0  0  0  0  0  0
   -3.5423    2.3548    0.8730 H   0  0  0  0  0  0  0  0  0  0  0  0
   -2.8422    0.8932    0.2437 H   0  0  0  0  0  0  0  0  0  0  0  0
   -4.7158   -0.5730    1.1528 O   0  0  0  0  0  0  0  0  0  0  0  0
   -0.1703    2.6650   -0.0209 C   0  0  0  0  0  0  0  0  0  0  0  0
   -0.8781    2.9154    0.6490 H   0  0  0  0  0  0  0  0  0  0  0  0
   -0.4888    2.9338   -0.9367 H   0  0  0  0  0  0  0  0  0  0  0  0
    0.7450    3.2104    0.2092 H   0  0  0  0  0  0  0  0  0  0  0  0
   -0.0127    1.1696   -0.0002 C   0  0  0  0  0  0  0  0  0  0  0  0
    1.0985    0.3855   -0.0000 C   0  0  0  0  0  0  0  0  0  0  0  0
    2.0423    0.6982   -0.0090 H   0  0  0  0  0  0  0  0  0  0  0  0
    0.6694   -0.9208    0.0160 N   0  0  0  0  0  0  0  0  0  0  0  0
   -0.6567   -0.9417   -0.0158 C   0  0  0  0  0  0  0  0  0  0  0  0
   -1.2230   -1.7590   -0.0454 H   0  0  0  0  0  0  0  0  0  0  0  0
   -1.0985    0.3074   -0.0000 N   0  0  0  0  0  0  0  0  0  0  0  0
   -2.0540    0.5866    0.0096 H   0  0  0  0  0  0  0  0  0  0  0  0
  1  5  1  0
  5  6  1  0
  5  9  2  0
  1  2  1  0
  1  3  1  0
  1  4  1  0
  6  7  1  0
  6  8  1  0
 10 14  1  0
 14 15  2  0
 15 17  1  0
 17 18  2  0
 18 20  1  0
 20 14  1  0
 10 11  1  0
 10 12  1  0
 10 13  1  0
 15 16  1  0
 18 19  1  0
 20 21  1  0
M  END
>  <PDB_ID>  (105) 
pdb1rfe

>  <RESIDUE_NAME>  (105) 
ASN   HID

>  <FRAG_NAME>  (105) 
ACEM   MIMD

>  <FRAG_ATOM_NUM>  (105) 
fragi: 9  fragj: 12

>  <atom.prop.CHAIN_ID>  (105) 
A A A A A A A A A Z Z Z Z Z Z Z Z Z Z Z Z

>  <atom.prop.IS_HEAVY_ATOM>  (105) 
1 0 0 0 1 1 0 0 1 1 0 0 0 1 1 0 1 1 0 1 0

>  <DIFUSE_FUNC_ATOM>  (105) 
n/a

>  <FINAL_SINGLE_POINT_ENERGY>  (105) 
0

>  <NONCOV_INTER_ENERGY_QM>  (105) 
0

>  <FF_Energy>  (105) 
14.55

>  <QM_Energy>  (105) 
40.39

>  <source>  (105) 
ACEM_MIMD

>  <Index>  (105) 
11653

$$$$
ACEM-pdb1rpx-A-ASN-150:MIMD-pdb1rpx-B-HID-108
     RDKit          3D

 21 20  0  0  0  0  0  0  0  0999 V2000
   -5.2995    2.4636    2.3545 C   0  0  0  0  0  0  0  0  0  0  0  0
   -5.9027    1.7396    2.0293 H   0  0  0  0  0  0  0  0  0  0  0  0
   -5.6873    3.3555    2.1335 H   0  0  0  0  0  0  0  0  0  0  0  0
   -5.2142    2.3824    3.4381 H   0  0  0  0  0  0  0  0  0  0  0  0
   -3.9696    2.3301    1.6730 C   0  0  0  0  0  0  0  0  0  0  0  0
   -3.7541    1.1995    1.0283 N   0  0  0  0  0  0  0  0  0  0  0  0
   -4.4574    0.4857    1.0030 H   0  0  0  0  0  0  0  0  0  0  0  0
   -2.8817    1.0458    0.5554 H   0  0  0  0  0  0  0  0  0  0  0  0
   -3.1334    3.2362    1.7309 O   0  0  0  0  0  0  0  0  0  0  0  0
   -0.1819    2.6475   -0.0232 C   0  0  0  0  0  0  0  0  0  0  0  0
    0.6293    3.0626    0.4020 H   0  0  0  0  0  0  0  0  0  0  0  0
   -0.9895    2.8870    0.5261 H   0  0  0  0  0  0  0  0  0  0  0  0
   -0.3030    3.0496   -1.0290 H   0  0  0  0  0  0  0  0  0  0  0  0
   -0.0196    1.1655    0.0017 C   0  0  0  0  0  0  0  0  0  0  0  0
    1.0910    0.3921    0.0000 C   0  0  0  0  0  0  0  0  0  0  0  0
    2.0350    0.7082    0.0007 H   0  0  0  0  0  0  0  0  0  0  0  0
    0.6701   -0.9153   -0.0014 N   0  0  0  0  0  0  0  0  0  0  0  0
   -0.6506   -0.9432   -0.0003 C   0  0  0  0  0  0  0  0  0  0  0  0
   -1.2156   -1.7635    0.0013 H   0  0  0  0  0  0  0  0  0  0  0  0
   -1.0910    0.3008   -0.0000 N   0  0  0  0  0  0  0  0  0  0  0  0
   -2.0536    0.5761   -0.0018 H   0  0  0  0  0  0  0  0  0  0  0  0
  1  5  1  0
  5  6  1  0
  5  9  2  0
  1  2  1  0
  1  3  1  0
  1  4  1  0
  6  7  1  0
  6  8  1  0
 10 14  1  0
 14 15  2  0
 15 17  1  0
 17 18  2  0
 18 20  1  0
 20 14  1  0
 10 11  1  0
 10 12  1  0
 10 13  1  0
 15 16  1  0
 18 19  1  0
 20 21  1  0
M  END
>  <PDB_ID>  (106) 
pdb1rpx

>  <RESIDUE_NAME>  (106) 
ASN   HID

>  <FRAG_NAME>  (106) 
ACEM   MIMD

>  <FRAG_ATOM_NUM>  (106) 
fragi: 9  fragj: 12

>  <atom.prop.CHAIN_ID>  (106) 
A A A A A A A A A Z Z Z Z Z Z Z Z Z Z Z Z

>  <atom.prop.IS_HEAVY_ATOM>  (106) 
1 0 0 0 1 1 0 0 1 1 0 0 0 1 1 0 1 1 0 1 0

>  <DIFUSE_FUNC_ATOM>  (106) 
n/a

>  <FINAL_SINGLE_POINT_ENERGY>  (106) 
0

>  <NONCOV_INTER_ENERGY_QM>  (106) 
0

>  <FF_Energy>  (106) 
6.53

>  <QM_Energy>  (106) 
17.92

>  <source>  (106) 
ACEM_MIMD

>  <Index>  (106) 
11860

$$$$
ACEM-pdb1rpx-B-ASN-150:MIMD-pdb1rpx-C-HID-108
     RDKit          3D

 21 20  0  0  0  0  0  0  0  0999 V2000
   -5.3380    2.2825    2.6227 C   0  0  0  0  0  0  0  0  0  0  0  0
   -5.9227    1.5552    2.2778 H   0  0  0  0  0  0  0  0  0  0  0  0
   -5.7484    3.1709    2.4433 H   0  0  0  0  0  0  0  0  0  0  0  0
   -5.2286    2.1607    3.7003 H   0  0  0  0  0  0  0  0  0  0  0  0
   -4.0047    2.2131    1.8946 C   0  0  0  0  0  0  0  0  0  0  0  0
   -3.7804    1.1153    1.1739 N   0  0  0  0  0  0  0  0  0  0  0  0
   -4.4771    0.3982    1.1320 H   0  0  0  0  0  0  0  0  0  0  0  0
   -2.9212    1.0095    0.6772 H   0  0  0  0  0  0  0  0  0  0  0  0
   -3.1884    3.1381    1.9750 O   0  0  0  0  0  0  0  0  0  0  0  0
   -0.1774    2.6508    0.0447 C   0  0  0  0  0  0  0  0  0  0  0  0
    0.6601    3.0484    0.4384 H   0  0  0  0  0  0  0  0  0  0  0  0
   -0.9482    2.8686    0.6552 H   0  0  0  0  0  0  0  0  0  0  0  0
   -0.3594    3.0940   -0.9344 H   0  0  0  0  0  0  0  0  0  0  0  0
   -0.0172    1.1659    0.0082 C   0  0  0  0  0  0  0  0  0  0  0  0
    1.0910    0.3904   -0.0000 C   0  0  0  0  0  0  0  0  0  0  0  0
    2.0358    0.7064   -0.0014 H   0  0  0  0  0  0  0  0  0  0  0  0
    0.6693   -0.9155   -0.0043 N   0  0  0  0  0  0  0  0  0  0  0  0
   -0.6521   -0.9428   -0.0040 C   0  0  0  0  0  0  0  0  0  0  0  0
   -1.2170   -1.7621   -0.0053 H   0  0  0  0  0  0  0  0  0  0  0  0
   -1.0910    0.3021    0.0000 N   0  0  0  0  0  0  0  0  0  0  0  0
   -2.0523    0.5787   -0.0029 H   0  0  0  0  0  0  0  0  0  0  0  0
  1  5  1  0
  5  6  1  0
  5  9  2  0
  1  2  1  0
  1  3  1  0
  1  4  1  0
  6  7  1  0
  6  8  1  0
 10 14  1  0
 14 15  2  0
 15 17  1  0
 17 18  2  0
 18 20  1  0
 20 14  1  0
 10 11  1  0
 10 12  1  0
 10 13  1  0
 15 16  1  0
 18 19  1  0
 20 21  1  0
M  END
>  <PDB_ID>  (107) 
pdb1rpx

>  <RESIDUE_NAME>  (107) 
ASN   HID

>  <FRAG_NAME>  (107) 
ACEM   MIMD

>  <FRAG_ATOM_NUM>  (107) 
fragi: 9  fragj: 12

>  <atom.prop.CHAIN_ID>  (107) 
A A A A A A A A A Z Z Z Z Z Z Z Z Z Z Z Z

>  <atom.prop.IS_HEAVY_ATOM>  (107) 
1 0 0 0 1 1 0 0 1 1 0 0 0 1 1 0 1 1 0 1 0

>  <DIFUSE_FUNC_ATOM>  (107) 
n/a

>  <FINAL_SINGLE_POINT_ENERGY>  (107) 
0

>  <NONCOV_INTER_ENERGY_QM>  (107) 
0

>  <FF_Energy>  (107) 
5.07

>  <QM_Energy>  (107) 
13.67

>  <source>  (107) 
ACEM_MIMD

>  <Index>  (107) 
11861

$$$$
ACEM-pdb2y9w-B-ASN-260:MIMD-pdb2y9w-B-HID-244
     RDKit          3D

 21 20  0  0  0  0  0  0  0  0999 V2000
   -6.1736    1.5577    1.9365 C   0  0  0  0  0  0  0  0  0  0  0  0
   -5.8231    2.4708    2.1268 H   0  0  0  0  0  0  0  0  0  0  0  0
   -6.1862    1.0145    2.7719 H   0  0  0  0  0  0  0  0  0  0  0  0
   -7.1944    1.6472    1.5650 H   0  0  0  0  0  0  0  0  0  0  0  0
   -5.2321    0.8823    0.9390 C   0  0  0  0  0  0  0  0  0  0  0  0
   -3.9218    1.0297    1.1653 N   0  0  0  0  0  0  0  0  0  0  0  0
   -3.6158    1.5556    1.9590 H   0  0  0  0  0  0  0  0  0  0  0  0
   -3.2598    0.6172    0.5467 H   0  0  0  0  0  0  0  0  0  0  0  0
   -5.6717    0.2283   -0.0127 O   0  0  0  0  0  0  0  0  0  0  0  0
   -0.1834    2.6610   -0.0098 C   0  0  0  0  0  0  0  0  0  0  0  0
   -0.0697    2.9949    0.9340 H   0  0  0  0  0  0  0  0  0  0  0  0
   -1.1221    2.8769   -0.3081 H   0  0  0  0  0  0  0  0  0  0  0  0
    0.5146    3.1974   -0.6526 H   0  0  0  0  0  0  0  0  0  0  0  0
   -0.0168    1.1695   -0.0096 C   0  0  0  0  0  0  0  0  0  0  0  0
    1.0935    0.3888   -0.0000 C   0  0  0  0  0  0  0  0  0  0  0  0
    2.0377    0.7037    0.0020 H   0  0  0  0  0  0  0  0  0  0  0  0
    0.6705   -0.9194    0.0071 N   0  0  0  0  0  0  0  0  0  0  0  0
   -0.6537   -0.9432    0.0025 C   0  0  0  0  0  0  0  0  0  0  0  0
   -1.2194   -1.7615    0.0025 H   0  0  0  0  0  0  0  0  0  0  0  0
   -1.0935    0.3042    0.0000 N   0  0  0  0  0  0  0  0  0  0  0  0
   -2.0541    0.5814    0.0038 H   0  0  0  0  0  0  0  0  0  0  0  0
  1  5  1  0
  5  6  1  0
  5  9  2  0
  1  2  1  0
  1  3  1  0
  1  4  1  0
  6  7  1  0
  6  8  1  0
 10 14  1  0
 14 15  2  0
 15 17  1  0
 17 18  2  0
 18 20  1  0
 20 14  1  0
 10 11  1  0
 10 12  1  0
 10 13  1  0
 15 16  1  0
 18 19  1  0
 20 21  1  0
M  END
>  <PDB_ID>  (108) 
pdb2y9w

>  <RESIDUE_NAME>  (108) 
ASN   HID

>  <FRAG_NAME>  (108) 
ACEM   MIMD

>  <FRAG_ATOM_NUM>  (108) 
fragi: 9  fragj: 12

>  <atom.prop.CHAIN_ID>  (108) 
A A A A A A A A A Z Z Z Z Z Z Z Z Z Z Z Z

>  <atom.prop.IS_HEAVY_ATOM>  (108) 
1 0 0 0 1 1 0 0 1 1 0 0 0 1 1 0 1 1 0 1 0

>  <DIFUSE_FUNC_ATOM>  (108) 
n/a

>  <FINAL_SINGLE_POINT_ENERGY>  (108) 
0

>  <NONCOV_INTER_ENERGY_QM>  (108) 
0

>  <FF_Energy>  (108) 
4.28

>  <QM_Energy>  (108) 
9.42

>  <source>  (108) 
ACEM_MIMD

>  <Index>  (108) 
12155

$$$$
ACEM-pdb2yii-D-GLN-285:MIMD-pdb2yii-D-HID-277
     RDKit          3D

 21 20  0  0  0  0  0  0  0  0999 V2000
   -3.9645    1.4155    1.6655 C   0  0  0  0  0  0  0  0  0  0  0  0
   -2.9841    1.4996    1.4777 H   0  0  0  0  0  0  0  0  0  0  0  0
   -4.1509    0.5034    2.0357 H   0  0  0  0  0  0  0  0  0  0  0  0
   -4.2482    2.1627    2.4066 H   0  0  0  0  0  0  0  0  0  0  0  0
   -4.7162    1.5624    0.3517 C   0  0  0  0  0  0  0  0  0  0  0  0
   -4.0200    1.3124   -0.7514 N   0  0  0  0  0  0  0  0  0  0  0  0
   -4.4584    1.3762   -1.6681 H   0  0  0  0  0  0  0  0  0  0  0  0
   -3.0386    1.0562   -0.6674 H   0  0  0  0  0  0  0  0  0  0  0  0
   -5.9116    1.8733    0.3275 O   0  0  0  0  0  0  0  0  0  0  0  0
   -0.1741    2.6511    0.0090 C   0  0  0  0  0  0  0  0  0  0  0  0
    0.6801    3.0650    0.3271 H   0  0  0  0  0  0  0  0  0  0  0  0
   -0.9143    2.8985    0.6364 H   0  0  0  0  0  0  0  0  0  0  0  0
   -0.4077    3.0254   -0.9877 H   0  0  0  0  0  0  0  0  0  0  0  0
   -0.0145    1.1656    0.0331 C   0  0  0  0  0  0  0  0  0  0  0  0
    1.0912    0.3874    0.0000 C   0  0  0  0  0  0  0  0  0  0  0  0
    2.0376    0.7011   -0.0100 H   0  0  0  0  0  0  0  0  0  0  0  0
    0.6676   -0.9184   -0.0165 N   0  0  0  0  0  0  0  0  0  0  0  0
   -0.6531   -0.9404   -0.0166 C   0  0  0  0  0  0  0  0  0  0  0  0
   -1.2218   -1.7586   -0.0263 H   0  0  0  0  0  0  0  0  0  0  0  0
   -1.0912    0.3059    0.0000 N   0  0  0  0  0  0  0  0  0  0  0  0
   -2.0513    0.5846   -0.0105 H   0  0  0  0  0  0  0  0  0  0  0  0
  1  5  1  0
  5  6  1  0
  5  9  2  0
  1  2  1  0
  1  3  1  0
  1  4  1  0
  6  7  1  0
  6  8  1  0
 10 14  1  0
 14 15  2  0
 15 17  1  0
 17 18  2  0
 18 20  1  0
 20 14  1  0
 10 11  1  0
 10 12  1  0
 10 13  1  0
 15 16  1  0
 18 19  1  0
 20 21  1  0
M  END
>  <PDB_ID>  (109) 
pdb2yii

>  <RESIDUE_NAME>  (109) 
GLN   HID

>  <FRAG_NAME>  (109) 
ACEM   MIMD

>  <FRAG_ATOM_NUM>  (109) 
fragi: 9  fragj: 12

>  <atom.prop.CHAIN_ID>  (109) 
A A A A A A A A A Z Z Z Z Z Z Z Z Z Z Z Z

>  <atom.prop.IS_HEAVY_ATOM>  (109) 
1 0 0 0 1 1 0 0 1 1 0 0 0 1 1 0 1 1 0 1 0

>  <DIFUSE_FUNC_ATOM>  (109) 
n/a

>  <FINAL_SINGLE_POINT_ENERGY>  (109) 
0

>  <NONCOV_INTER_ENERGY_QM>  (109) 
0

>  <FF_Energy>  (109) 
5.32

>  <QM_Energy>  (109) 
10.86

>  <source>  (109) 
ACEM_MIMD

>  <Index>  (109) 
12307

$$$$
ACEM-pdb2ymz-A-ASN-34:MIMD-pdb2ymz-A-HID-45
     RDKit          3D

 21 20  0  0  0  0  0  0  0  0999 V2000
   -5.3444    2.9106    0.4077 C   0  0  0  0  0  0  0  0  0  0  0  0
   -6.2751    2.6047    0.5508 H   0  0  0  0  0  0  0  0  0  0  0  0
   -5.2535    3.3902   -0.4538 H   0  0  0  0  0  0  0  0  0  0  0  0
   -5.0252    3.5497    1.2310 H   0  0  0  0  0  0  0  0  0  0  0  0
   -4.4554    1.6338    0.3135 C   0  0  0  0  0  0  0  0  0  0  0  0
   -3.1793    1.7607    0.3941 N   0  0  0  0  0  0  0  0  0  0  0  0
   -2.7797    2.6905    0.5233 H   0  0  0  0  0  0  0  0  0  0  0  0
   -2.5624    0.9777    0.3344 H   0  0  0  0  0  0  0  0  0  0  0  0
   -4.9991    0.5782    0.1804 O   0  0  0  0  0  0  0  0  0  0  0  0
   -0.1743    2.6891   -0.1225 C   0  0  0  0  0  0  0  0  0  0  0  0
   -0.9106    2.8743   -0.7971 H   0  0  0  0  0  0  0  0  0  0  0  0
    0.6877    3.0536   -0.5166 H   0  0  0  0  0  0  0  0  0  0  0  0
   -0.3955    3.2413    0.7908 H   0  0  0  0  0  0  0  0  0  0  0  0
   -0.0243    1.1734   -0.0049 C   0  0  0  0  0  0  0  0  0  0  0  0
    1.0965    0.3841    0.0000 C   0  0  0  0  0  0  0  0  0  0  0  0
    2.0362    0.7075    0.0207 H   0  0  0  0  0  0  0  0  0  0  0  0
    0.6758   -0.9194   -0.0270 N   0  0  0  0  0  0  0  0  0  0  0  0
   -0.6515   -0.9489    0.0319 C   0  0  0  0  0  0  0  0  0  0  0  0
   -1.2143   -1.7607    0.0902 H   0  0  0  0  0  0  0  0  0  0  0  0
   -1.0965    0.3109   -0.0000 N   0  0  0  0  0  0  0  0  0  0  0  0
   -2.0577    0.5777   -0.0180 H   0  0  0  0  0  0  0  0  0  0  0  0
  1  5  1  0
  5  6  1  0
  5  9  2  0
  1  2  1  0
  1  3  1  0
  1  4  1  0
  6  7  1  0
  6  8  1  0
 10 14  1  0
 14 15  2  0
 15 17  1  0
 17 18  2  0
 18 20  1  0
 20 14  1  0
 10 11  1  0
 10 12  1  0
 10 13  1  0
 15 16  1  0
 18 19  1  0
 20 21  1  0
M  END
>  <PDB_ID>  (110) 
pdb2ymz

>  <RESIDUE_NAME>  (110) 
ASN   HID

>  <FRAG_NAME>  (110) 
ACEM   MIMD

>  <FRAG_ATOM_NUM>  (110) 
fragi: 9  fragj: 12

>  <atom.prop.CHAIN_ID>  (110) 
A A A A A A A A A Z Z Z Z Z Z Z Z Z Z Z Z

>  <atom.prop.IS_HEAVY_ATOM>  (110) 
1 0 0 0 1 1 0 0 1 1 0 0 0 1 1 0 1 1 0 1 0

>  <DIFUSE_FUNC_ATOM>  (110) 
n/a

>  <FINAL_SINGLE_POINT_ENERGY>  (110) 
0

>  <NONCOV_INTER_ENERGY_QM>  (110) 
0

>  <FF_Energy>  (110) 
28.15

>  <QM_Energy>  (110) 
69.57

>  <source>  (110) 
ACEM_MIMD

>  <Index>  (110) 
12371

$$$$
ACEM-pdb2ymz-F-ASN-34:MIMD-pdb2ymz-F-HID-45
     RDKit          3D

 21 20  0  0  0  0  0  0  0  0999 V2000
   -5.3898    2.8535    0.4918 C   0  0  0  0  0  0  0  0  0  0  0  0
   -6.3389    2.5876    0.5926 H   0  0  0  0  0  0  0  0  0  0  0  0
   -5.2640    3.4294   -0.3051 H   0  0  0  0  0  0  0  0  0  0  0  0
   -5.0983    3.4234    1.3740 H   0  0  0  0  0  0  0  0  0  0  0  0
   -4.5452    1.5984    0.3271 C   0  0  0  0  0  0  0  0  0  0  0  0
   -3.2368    1.7326    0.4831 N   0  0  0  0  0  0  0  0  0  0  0  0
   -2.8537    2.6341    0.7056 H   0  0  0  0  0  0  0  0  0  0  0  0
   -2.6314    0.9459    0.3818 H   0  0  0  0  0  0  0  0  0  0  0  0
   -5.0805    0.5036    0.0401 O   0  0  0  0  0  0  0  0  0  0  0  0
   -0.1672    2.6682    0.0206 C   0  0  0  0  0  0  0  0  0  0  0  0
   -0.8899    2.9054   -0.6483 H   0  0  0  0  0  0  0  0  0  0  0  0
    0.7002    3.0675   -0.3136 H   0  0  0  0  0  0  0  0  0  0  0  0
   -0.4146    3.1453    0.9689 H   0  0  0  0  0  0  0  0  0  0  0  0
   -0.0200    1.1698    0.0505 C   0  0  0  0  0  0  0  0  0  0  0  0
    1.0926    0.3871   -0.0000 C   0  0  0  0  0  0  0  0  0  0  0  0
    2.0358    0.7062   -0.0200 H   0  0  0  0  0  0  0  0  0  0  0  0
    0.6725   -0.9196   -0.0166 N   0  0  0  0  0  0  0  0  0  0  0  0
   -0.6525   -0.9441   -0.0340 C   0  0  0  0  0  0  0  0  0  0  0  0
   -1.2181   -1.7599   -0.0656 H   0  0  0  0  0  0  0  0  0  0  0  0
   -1.0926    0.3068   -0.0000 N   0  0  0  0  0  0  0  0  0  0  0  0
   -2.0547    0.5800   -0.0102 H   0  0  0  0  0  0  0  0  0  0  0  0
  1  5  1  0
  5  6  1  0
  5  9  2  0
  1  2  1  0
  1  3  1  0
  1  4  1  0
  6  7  1  0
  6  8  1  0
 10 14  1  0
 14 15  2  0
 15 17  1  0
 17 18  2  0
 18 20  1  0
 20 14  1  0
 10 11  1  0
 10 12  1  0
 10 13  1  0
 15 16  1  0
 18 19  1  0
 20 21  1  0
M  END
>  <PDB_ID>  (111) 
pdb2ymz

>  <RESIDUE_NAME>  (111) 
ASN   HID

>  <FRAG_NAME>  (111) 
ACEM   MIMD

>  <FRAG_ATOM_NUM>  (111) 
fragi: 9  fragj: 12

>  <atom.prop.CHAIN_ID>  (111) 
A A A A A A A A A Z Z Z Z Z Z Z Z Z Z Z Z

>  <atom.prop.IS_HEAVY_ATOM>  (111) 
1 0 0 0 1 1 0 0 1 1 0 0 0 1 1 0 1 1 0 1 0

>  <DIFUSE_FUNC_ATOM>  (111) 
n/a

>  <FINAL_SINGLE_POINT_ENERGY>  (111) 
0

>  <NONCOV_INTER_ENERGY_QM>  (111) 
0

>  <FF_Energy>  (111) 
22.51

>  <QM_Energy>  (111) 
56.71

>  <source>  (111) 
ACEM_MIMD

>  <Index>  (111) 
12376

$$$$
ACEM-pdb1sqe-A-GLN-52:MIMD-pdb1sqe-B-HID-121
     RDKit          3D

 21 20  0  0  0  0  0  0  0  0999 V2000
   -2.8926   -4.5316    1.3511 C   0  0  0  0  0  0  0  0  0  0  0  0
   -2.1432   -4.4754    2.0041 H   0  0  0  0  0  0  0  0  0  0  0  0
   -3.4124   -5.3689    1.4957 H   0  0  0  0  0  0  0  0  0  0  0  0
   -3.5523   -3.6755    1.4923 H   0  0  0  0  0  0  0  0  0  0  0  0
   -2.3030   -4.5669   -0.0541 C   0  0  0  0  0  0  0  0  0  0  0  0
   -1.6340   -3.4845   -0.4469 N   0  0  0  0  0  0  0  0  0  0  0  0
   -1.2034   -3.4438   -1.3618 H   0  0  0  0  0  0  0  0  0  0  0  0
   -1.5626   -2.6954    0.1936 H   0  0  0  0  0  0  0  0  0  0  0  0
   -2.4543   -5.5576   -0.7787 O   0  0  0  0  0  0  0  0  0  0  0  0
   -0.1746    2.6590   -0.0142 C   0  0  0  0  0  0  0  0  0  0  0  0
   -0.6649    2.9190   -0.8517 H   0  0  0  0  0  0  0  0  0  0  0  0
    0.7411    3.0723   -0.0352 H   0  0  0  0  0  0  0  0  0  0  0  0
   -0.7173    3.0437    0.8494 H   0  0  0  0  0  0  0  0  0  0  0  0
   -0.0168    1.1683   -0.0052 C   0  0  0  0  0  0  0  0  0  0  0  0
    1.0909    0.3880    0.0000 C   0  0  0  0  0  0  0  0  0  0  0  0
    2.0363    0.7030    0.0028 H   0  0  0  0  0  0  0  0  0  0  0  0
    0.6689   -0.9185    0.0021 N   0  0  0  0  0  0  0  0  0  0  0  0
   -0.6521   -0.9420    0.0031 C   0  0  0  0  0  0  0  0  0  0  0  0
   -1.2196   -1.7608    0.0071 H   0  0  0  0  0  0  0  0  0  0  0  0
   -1.0909    0.3042    0.0000 N   0  0  0  0  0  0  0  0  0  0  0  0
   -2.0523    0.5804    0.0005 H   0  0  0  0  0  0  0  0  0  0  0  0
  1  5  1  0
  5  6  1  0
  5  9  2  0
  1  2  1  0
  1  3  1  0
  1  4  1  0
  6  7  1  0
  6  8  1  0
 10 14  1  0
 14 15  2  0
 15 17  1  0
 17 18  2  0
 18 20  1  0
 20 14  1  0
 10 11  1  0
 10 12  1  0
 10 13  1  0
 15 16  1  0
 18 19  1  0
 20 21  1  0
M  END
>  <PDB_ID>  (112) 
pdb1sqe

>  <RESIDUE_NAME>  (112) 
GLN   HID

>  <FRAG_NAME>  (112) 
ACEM   MIMD

>  <FRAG_ATOM_NUM>  (112) 
fragi: 9  fragj: 12

>  <atom.prop.CHAIN_ID>  (112) 
A A A A A A A A A Z Z Z Z Z Z Z Z Z Z Z Z

>  <atom.prop.IS_HEAVY_ATOM>  (112) 
1 0 0 0 1 1 0 0 1 1 0 0 0 1 1 0 1 1 0 1 0

>  <DIFUSE_FUNC_ATOM>  (112) 
n/a

>  <FINAL_SINGLE_POINT_ENERGY>  (112) 
0

>  <NONCOV_INTER_ENERGY_QM>  (112) 
0

>  <FF_Energy>  (112) 
15.22

>  <QM_Energy>  (112) 
28.23

>  <source>  (112) 
ACEM_MIMD

>  <Index>  (112) 
12542

$$$$
ACEM-pdb2ywr-A-ASN-107:MIMD-pdb2ywr-A-HID-138
     RDKit          3D

 21 20  0  0  0  0  0  0  0  0999 V2000
   -0.3914   -2.1980   -3.4722 C   0  0  0  0  0  0  0  0  0  0  0  0
    0.4059   -2.5227   -3.9724 H   0  0  0  0  0  0  0  0  0  0  0  0
   -0.1078   -1.6073   -2.7221 H   0  0  0  0  0  0  0  0  0  0  0  0
   -1.0113   -1.6152   -4.1536 H   0  0  0  0  0  0  0  0  0  0  0  0
   -1.1239   -3.3931   -2.8983 C   0  0  0  0  0  0  0  0  0  0  0  0
   -1.4020   -3.3510   -1.5968 N   0  0  0  0  0  0  0  0  0  0  0  0
   -1.1311   -2.5526   -1.0575 H   0  0  0  0  0  0  0  0  0  0  0  0
   -1.8783   -4.1121   -1.1613 H   0  0  0  0  0  0  0  0  0  0  0  0
   -1.4430   -4.3383   -3.6127 O   0  0  0  0  0  0  0  0  0  0  0  0
   -0.1732    2.6602   -0.0195 C   0  0  0  0  0  0  0  0  0  0  0  0
    0.6856    3.0714    0.3028 H   0  0  0  0  0  0  0  0  0  0  0  0
   -0.9083    2.9089    0.6200 H   0  0  0  0  0  0  0  0  0  0  0  0
   -0.4112    3.0625   -1.0041 H   0  0  0  0  0  0  0  0  0  0  0  0
   -0.0172    1.1685    0.0009 C   0  0  0  0  0  0  0  0  0  0  0  0
    1.0897    0.3898   -0.0000 C   0  0  0  0  0  0  0  0  0  0  0  0
    2.0353    0.7043    0.0010 H   0  0  0  0  0  0  0  0  0  0  0  0
    0.6686   -0.9181   -0.0008 N   0  0  0  0  0  0  0  0  0  0  0  0
   -0.6515   -0.9433   -0.0001 C   0  0  0  0  0  0  0  0  0  0  0  0
   -1.2187   -1.7613    0.0012 H   0  0  0  0  0  0  0  0  0  0  0  0
   -1.0897    0.3031    0.0000 N   0  0  0  0  0  0  0  0  0  0  0  0
   -2.0522    0.5789   -0.0009 H   0  0  0  0  0  0  0  0  0  0  0  0
  1  5  1  0
  5  6  1  0
  5  9  2  0
  1  2  1  0
  1  3  1  0
  1  4  1  0
  6  7  1  0
  6  8  1  0
 10 14  1  0
 14 15  2  0
 15 17  1  0
 17 18  2  0
 18 20  1  0
 20 14  1  0
 10 11  1  0
 10 12  1  0
 10 13  1  0
 15 16  1  0
 18 19  1  0
 20 21  1  0
M  END
>  <PDB_ID>  (113) 
pdb2ywr

>  <RESIDUE_NAME>  (113) 
ASN   HID

>  <FRAG_NAME>  (113) 
ACEM   MIMD

>  <FRAG_ATOM_NUM>  (113) 
fragi: 9  fragj: 12

>  <atom.prop.CHAIN_ID>  (113) 
A A A A A A A A A Z Z Z Z Z Z Z Z Z Z Z Z

>  <atom.prop.IS_HEAVY_ATOM>  (113) 
1 0 0 0 1 1 0 0 1 1 0 0 0 1 1 0 1 1 0 1 0

>  <DIFUSE_FUNC_ATOM>  (113) 
n/a

>  <FINAL_SINGLE_POINT_ENERGY>  (113) 
0

>  <NONCOV_INTER_ENERGY_QM>  (113) 
0

>  <FF_Energy>  (113) 
0.38

>  <QM_Energy>  (113) 
7.54

>  <source>  (113) 
ACEM_MIMD

>  <Index>  (113) 
12627

$$$$
ACEM-pdb2zbt-C-ASN-262:MIMD-pdb2zbt-C-HID-229
     RDKit          3D

 21 20  0  0  0  0  0  0  0  0999 V2000
   -1.0962   -4.3835   -2.5390 C   0  0  0  0  0  0  0  0  0  0  0  0
   -1.1381   -3.5278   -3.0461 H   0  0  0  0  0  0  0  0  0  0  0  0
   -1.1953   -5.1563   -3.1583 H   0  0  0  0  0  0  0  0  0  0  0  0
   -0.1205   -4.4513   -2.0578 H   0  0  0  0  0  0  0  0  0  0  0  0
   -2.2381   -4.4118   -1.5407 C   0  0  0  0  0  0  0  0  0  0  0  0
   -2.1235   -3.6179   -0.4817 N   0  0  0  0  0  0  0  0  0  0  0  0
   -1.3124   -3.0376   -0.3824 H   0  0  0  0  0  0  0  0  0  0  0  0
   -2.8402   -3.5977    0.2125 H   0  0  0  0  0  0  0  0  0  0  0  0
   -3.2115   -5.1486   -1.7176 O   0  0  0  0  0  0  0  0  0  0  0  0
   -0.1716    2.6545   -0.0081 C   0  0  0  0  0  0  0  0  0  0  0  0
    0.6852    3.0652    0.3220 H   0  0  0  0  0  0  0  0  0  0  0  0
   -0.9085    2.8984    0.6319 H   0  0  0  0  0  0  0  0  0  0  0  0
   -0.4060    3.0661   -0.9898 H   0  0  0  0  0  0  0  0  0  0  0  0
   -0.0151    1.1669    0.0004 C   0  0  0  0  0  0  0  0  0  0  0  0
    1.0919    0.3875   -0.0000 C   0  0  0  0  0  0  0  0  0  0  0  0
    2.0368    0.7006    0.0008 H   0  0  0  0  0  0  0  0  0  0  0  0
    0.6677   -0.9191   -0.0003 N   0  0  0  0  0  0  0  0  0  0  0  0
   -0.6527   -0.9412   -0.0001 C   0  0  0  0  0  0  0  0  0  0  0  0
   -1.2212   -1.7589    0.0012 H   0  0  0  0  0  0  0  0  0  0  0  0
   -1.0919    0.3059    0.0000 N   0  0  0  0  0  0  0  0  0  0  0  0
   -2.0520    0.5831   -0.0014 H   0  0  0  0  0  0  0  0  0  0  0  0
  1  5  1  0
  5  6  1  0
  5  9  2  0
  1  2  1  0
  1  3  1  0
  1  4  1  0
  6  7  1  0
  6  8  1  0
 10 14  1  0
 14 15  2  0
 15 17  1  0
 17 18  2  0
 18 20  1  0
 20 14  1  0
 10 11  1  0
 10 12  1  0
 10 13  1  0
 15 16  1  0
 18 19  1  0
 20 21  1  0
M  END
>  <PDB_ID>  (114) 
pdb2zbt

>  <RESIDUE_NAME>  (114) 
ASN   HID

>  <FRAG_NAME>  (114) 
ACEM   MIMD

>  <FRAG_ATOM_NUM>  (114) 
fragi: 9  fragj: 12

>  <atom.prop.CHAIN_ID>  (114) 
A A A A A A A A A Z Z Z Z Z Z Z Z Z Z Z Z

>  <atom.prop.IS_HEAVY_ATOM>  (114) 
1 0 0 0 1 1 0 0 1 1 0 0 0 1 1 0 1 1 0 1 0

>  <DIFUSE_FUNC_ATOM>  (114) 
n/a

>  <FINAL_SINGLE_POINT_ENERGY>  (114) 
0

>  <NONCOV_INTER_ENERGY_QM>  (114) 
0

>  <FF_Energy>  (114) 
1.25

>  <QM_Energy>  (114) 
7.54

>  <source>  (114) 
ACEM_MIMD

>  <Index>  (114) 
12968

$$$$
ACEM-pdb1tpy-A-GLN-282:MIMD-pdb1tpy-A-HID-167
     RDKit          3D

 21 20  0  0  0  0  0  0  0  0999 V2000
   -2.8693    1.8238    2.6489 C   0  0  0  0  0  0  0  0  0  0  0  0
   -2.1425    2.0937    2.0111 H   0  0  0  0  0  0  0  0  0  0  0  0
   -2.6217    0.9492    3.0741 H   0  0  0  0  0  0  0  0  0  0  0  0
   -2.9436    2.5801    3.4302 H   0  0  0  0  0  0  0  0  0  0  0  0
   -4.1519    1.6344    1.8654 C   0  0  0  0  0  0  0  0  0  0  0  0
   -4.0715    0.9115    0.7610 N   0  0  0  0  0  0  0  0  0  0  0  0
   -4.8945    0.7282    0.1898 H   0  0  0  0  0  0  0  0  0  0  0  0
   -3.1643    0.5326    0.4835 H   0  0  0  0  0  0  0  0  0  0  0  0
   -5.2087    2.1373    2.2545 O   0  0  0  0  0  0  0  0  0  0  0  0
   -0.1829    2.6528   -0.1169 C   0  0  0  0  0  0  0  0  0  0  0  0
   -1.1377    2.8816    0.1133 H   0  0  0  0  0  0  0  0  0  0  0  0
   -0.0204    2.9201   -1.0764 H   0  0  0  0  0  0  0  0  0  0  0  0
    0.4826    3.2286    0.5263 H   0  0  0  0  0  0  0  0  0  0  0  0
   -0.0170    1.1684   -0.0092 C   0  0  0  0  0  0  0  0  0  0  0  0
    1.0912    0.3882   -0.0000 C   0  0  0  0  0  0  0  0  0  0  0  0
    2.0368    0.7025    0.0039 H   0  0  0  0  0  0  0  0  0  0  0  0
    0.6687   -0.9188    0.0039 N   0  0  0  0  0  0  0  0  0  0  0  0
   -0.6518   -0.9421    0.0054 C   0  0  0  0  0  0  0  0  0  0  0  0
   -1.2196   -1.7607    0.0106 H   0  0  0  0  0  0  0  0  0  0  0  0
   -1.0912    0.3044    0.0000 N   0  0  0  0  0  0  0  0  0  0  0  0
   -2.0527    0.5807    0.0021 H   0  0  0  0  0  0  0  0  0  0  0  0
  1  5  1  0
  5  6  1  0
  5  9  2  0
  1  2  1  0
  1  3  1  0
  1  4  1  0
  6  7  1  0
  6  8  1  0
 10 14  1  0
 14 15  2  0
 15 17  1  0
 17 18  2  0
 18 20  1  0
 20 14  1  0
 10 11  1  0
 10 12  1  0
 10 13  1  0
 15 16  1  0
 18 19  1  0
 20 21  1  0
M  END
>  <PDB_ID>  (115) 
pdb1tpy

>  <RESIDUE_NAME>  (115) 
GLN   HID

>  <FRAG_NAME>  (115) 
ACEM   MIMD

>  <FRAG_ATOM_NUM>  (115) 
fragi: 9  fragj: 12

>  <atom.prop.CHAIN_ID>  (115) 
A A A A A A A A A Z Z Z Z Z Z Z Z Z Z Z Z

>  <atom.prop.IS_HEAVY_ATOM>  (115) 
1 0 0 0 1 1 0 0 1 1 0 0 0 1 1 0 1 1 0 1 0

>  <DIFUSE_FUNC_ATOM>  (115) 
n/a

>  <FINAL_SINGLE_POINT_ENERGY>  (115) 
0

>  <NONCOV_INTER_ENERGY_QM>  (115) 
0

>  <FF_Energy>  (115) 
6.0

>  <QM_Energy>  (115) 
12.42

>  <source>  (115) 
ACEM_MIMD

>  <Index>  (115) 
13051

$$$$
ACEM-pdb1tw2-A-GLN-102:MIMD-pdb1tw2-A-HID-106
     RDKit          3D

 21 20  0  0  0  0  0  0  0  0999 V2000
   -4.2038   -2.8459   -1.5963 C   0  0  0  0  0  0  0  0  0  0  0  0
   -5.0854   -3.2717   -1.8047 H   0  0  0  0  0  0  0  0  0  0  0  0
   -3.4820   -3.3080   -2.1129 H   0  0  0  0  0  0  0  0  0  0  0  0
   -4.2391   -1.8000   -1.9015 H   0  0  0  0  0  0  0  0  0  0  0  0
   -3.9225   -3.0243   -0.1101 C   0  0  0  0  0  0  0  0  0  0  0  0
   -2.6655   -2.9252    0.2730 N   0  0  0  0  0  0  0  0  0  0  0  0
   -2.4032   -3.0191    1.2517 H   0  0  0  0  0  0  0  0  0  0  0  0
   -1.9453   -2.7510   -0.4317 H   0  0  0  0  0  0  0  0  0  0  0  0
   -4.8381   -3.2230    0.6765 O   0  0  0  0  0  0  0  0  0  0  0  0
   -0.1627    2.6538   -0.0037 C   0  0  0  0  0  0  0  0  0  0  0  0
   -0.8676    2.8937   -0.6800 H   0  0  0  0  0  0  0  0  0  0  0  0
    0.7116    3.0563   -0.2975 H   0  0  0  0  0  0  0  0  0  0  0  0
   -0.4394    3.0680    0.9657 H   0  0  0  0  0  0  0  0  0  0  0  0
   -0.0119    1.1658    0.0071 C   0  0  0  0  0  0  0  0  0  0  0  0
    1.0914    0.3848   -0.0000 C   0  0  0  0  0  0  0  0  0  0  0  0
    2.0387    0.6979   -0.0054 H   0  0  0  0  0  0  0  0  0  0  0  0
    0.6670   -0.9174    0.0049 N   0  0  0  0  0  0  0  0  0  0  0  0
   -0.6551   -0.9395   -0.0119 C   0  0  0  0  0  0  0  0  0  0  0  0
   -1.2232   -1.7573   -0.0283 H   0  0  0  0  0  0  0  0  0  0  0  0
   -1.0914    0.3063   -0.0000 N   0  0  0  0  0  0  0  0  0  0  0  0
   -2.0506    0.5879    0.0017 H   0  0  0  0  0  0  0  0  0  0  0  0
  1  5  1  0
  5  6  1  0
  5  9  2  0
  1  2  1  0
  1  3  1  0
  1  4  1  0
  6  7  1  0
  6  8  1  0
 10 14  1  0
 14 15  2  0
 15 17  1  0
 17 18  2  0
 18 20  1  0
 20 14  1  0
 10 11  1  0
 10 12  1  0
 10 13  1  0
 15 16  1  0
 18 19  1  0
 20 21  1  0
M  END
>  <PDB_ID>  (116) 
pdb1tw2

>  <RESIDUE_NAME>  (116) 
GLN   HID

>  <FRAG_NAME>  (116) 
ACEM   MIMD

>  <FRAG_ATOM_NUM>  (116) 
fragi: 9  fragj: 12

>  <atom.prop.CHAIN_ID>  (116) 
A A A A A A A A A Z Z Z Z Z Z Z Z Z Z Z Z

>  <atom.prop.IS_HEAVY_ATOM>  (116) 
1 0 0 0 1 1 0 0 1 1 0 0 0 1 1 0 1 1 0 1 0

>  <DIFUSE_FUNC_ATOM>  (116) 
n/a

>  <FINAL_SINGLE_POINT_ENERGY>  (116) 
0

>  <NONCOV_INTER_ENERGY_QM>  (116) 
0

>  <FF_Energy>  (116) 
8.36

>  <QM_Energy>  (116) 
13.69

>  <source>  (116) 
ACEM_MIMD

>  <Index>  (116) 
13183

$$$$
ACEM-pdb1txk-B-ASN-399:MIMD-pdb1txk-B-HID-395
     RDKit          3D

 21 20  0  0  0  0  0  0  0  0999 V2000
   -3.4596   -2.7863   -1.3541 C   0  0  0  0  0  0  0  0  0  0  0  0
   -3.8720   -2.9834   -2.2378 H   0  0  0  0  0  0  0  0  0  0  0  0
   -3.0211   -1.8933   -1.3692 H   0  0  0  0  0  0  0  0  0  0  0  0
   -4.2505   -2.7666   -0.6043 H   0  0  0  0  0  0  0  0  0  0  0  0
   -2.4013   -3.8417   -1.0653 C   0  0  0  0  0  0  0  0  0  0  0  0
   -1.4399   -3.4993   -0.2181 N   0  0  0  0  0  0  0  0  0  0  0  0
   -1.4429   -2.5876    0.1975 H   0  0  0  0  0  0  0  0  0  0  0  0
   -0.7135   -4.1469    0.0077 H   0  0  0  0  0  0  0  0  0  0  0  0
   -2.4456   -4.9463   -1.6021 O   0  0  0  0  0  0  0  0  0  0  0  0
   -0.1718    2.6580   -0.0042 C   0  0  0  0  0  0  0  0  0  0  0  0
    0.6351    3.0620    0.4458 H   0  0  0  0  0  0  0  0  0  0  0  0
   -0.9867    2.8939    0.5397 H   0  0  0  0  0  0  0  0  0  0  0  0
   -0.2756    3.0957   -0.9971 H   0  0  0  0  0  0  0  0  0  0  0  0
   -0.0171    1.1675    0.0010 C   0  0  0  0  0  0  0  0  0  0  0  0
    1.0918    0.3898    0.0000 C   0  0  0  0  0  0  0  0  0  0  0  0
    2.0366    0.7046    0.0015 H   0  0  0  0  0  0  0  0  0  0  0  0
    0.6694   -0.9173   -0.0013 N   0  0  0  0  0  0  0  0  0  0  0  0
   -0.6523   -0.9432    0.0003 C   0  0  0  0  0  0  0  0  0  0  0  0
   -1.2187   -1.7616    0.0027 H   0  0  0  0  0  0  0  0  0  0  0  0
   -1.0918    0.3033   -0.0000 N   0  0  0  0  0  0  0  0  0  0  0  0
   -2.0527    0.5795   -0.0020 H   0  0  0  0  0  0  0  0  0  0  0  0
  1  5  1  0
  5  6  1  0
  5  9  2  0
  1  2  1  0
  1  3  1  0
  1  4  1  0
  6  7  1  0
  6  8  1  0
 10 14  1  0
 14 15  2  0
 15 17  1  0
 17 18  2  0
 18 20  1  0
 20 14  1  0
 10 11  1  0
 10 12  1  0
 10 13  1  0
 15 16  1  0
 18 19  1  0
 20 21  1  0
M  END
>  <PDB_ID>  (117) 
pdb1txk

>  <RESIDUE_NAME>  (117) 
ASN   HID

>  <FRAG_NAME>  (117) 
ACEM   MIMD

>  <FRAG_ATOM_NUM>  (117) 
fragi: 9  fragj: 12

>  <atom.prop.CHAIN_ID>  (117) 
A A A A A A A A A Z Z Z Z Z Z Z Z Z Z Z Z

>  <atom.prop.IS_HEAVY_ATOM>  (117) 
1 0 0 0 1 1 0 0 1 1 0 0 0 1 1 0 1 1 0 1 0

>  <DIFUSE_FUNC_ATOM>  (117) 
n/a

>  <FINAL_SINGLE_POINT_ENERGY>  (117) 
0

>  <NONCOV_INTER_ENERGY_QM>  (117) 
0

>  <FF_Energy>  (117) 
25.4

>  <QM_Energy>  (117) 
43.94

>  <source>  (117) 
ACEM_MIMD

>  <Index>  (117) 
13235

$$$$
ACEM-pdb2ztg-A-GLN-543:MIMD-pdb2ztg-A-HID-600
     RDKit          3D

 21 20  0  0  0  0  0  0  0  0999 V2000
   -4.1383    0.4657    1.4880 C   0  0  0  0  0  0  0  0  0  0  0  0
   -3.4296   -0.2380    1.4185 H   0  0  0  0  0  0  0  0  0  0  0  0
   -4.9438    0.0784    1.9399 H   0  0  0  0  0  0  0  0  0  0  0  0
   -3.7580    1.2903    2.0910 H   0  0  0  0  0  0  0  0  0  0  0  0
   -4.5265    0.8962    0.0950 C   0  0  0  0  0  0  0  0  0  0  0  0
   -3.5302    1.0566   -0.7724 N   0  0  0  0  0  0  0  0  0  0  0  0
   -3.7142    1.3320   -1.7355 H   0  0  0  0  0  0  0  0  0  0  0  0
   -2.5747    0.8992   -0.4569 H   0  0  0  0  0  0  0  0  0  0  0  0
   -5.7070    1.0730   -0.2088 O   0  0  0  0  0  0  0  0  0  0  0  0
   -0.1827    2.6505   -0.0122 C   0  0  0  0  0  0  0  0  0  0  0  0
   -0.8884    2.8937    0.6618 H   0  0  0  0  0  0  0  0  0  0  0  0
   -0.5039    2.9231   -0.9247 H   0  0  0  0  0  0  0  0  0  0  0  0
    0.7378    3.1862    0.2202 H   0  0  0  0  0  0  0  0  0  0  0  0
   -0.0169    1.1647   -0.0008 C   0  0  0  0  0  0  0  0  0  0  0  0
    1.0897    0.3859   -0.0000 C   0  0  0  0  0  0  0  0  0  0  0  0
    2.0355    0.7028    0.0013 H   0  0  0  0  0  0  0  0  0  0  0  0
    0.6694   -0.9161   -0.0001 N   0  0  0  0  0  0  0  0  0  0  0  0
   -0.6525   -0.9406    0.0009 C   0  0  0  0  0  0  0  0  0  0  0  0
   -1.2190   -1.7584    0.0034 H   0  0  0  0  0  0  0  0  0  0  0  0
   -1.0897    0.3061    0.0000 N   0  0  0  0  0  0  0  0  0  0  0  0
   -2.0510    0.5825   -0.0006 H   0  0  0  0  0  0  0  0  0  0  0  0
  1  5  1  0
  5  6  1  0
  5  9  2  0
  1  2  1  0
  1  3  1  0
  1  4  1  0
  6  7  1  0
  6  8  1  0
 10 14  1  0
 14 15  2  0
 15 17  1  0
 17 18  2  0
 18 20  1  0
 20 14  1  0
 10 11  1  0
 10 12  1  0
 10 13  1  0
 15 16  1  0
 18 19  1  0
 20 21  1  0
M  END
>  <PDB_ID>  (118) 
pdb2ztg

>  <RESIDUE_NAME>  (118) 
GLN   HID

>  <FRAG_NAME>  (118) 
ACEM   MIMD

>  <FRAG_ATOM_NUM>  (118) 
fragi: 9  fragj: 12

>  <atom.prop.CHAIN_ID>  (118) 
A A A A A A A A A Z Z Z Z Z Z Z Z Z Z Z Z

>  <atom.prop.IS_HEAVY_ATOM>  (118) 
1 0 0 0 1 1 0 0 1 1 0 0 0 1 1 0 1 1 0 1 0

>  <DIFUSE_FUNC_ATOM>  (118) 
n/a

>  <FINAL_SINGLE_POINT_ENERGY>  (118) 
0

>  <NONCOV_INTER_ENERGY_QM>  (118) 
0

>  <FF_Energy>  (118) 
22.16

>  <QM_Energy>  (118) 
60.67

>  <source>  (118) 
ACEM_MIMD

>  <Index>  (118) 
13271

$$$$
ACEM-pdb1u0m-A-GLN-173:MIMD-pdb1u0m-A-HID-62
     RDKit          3D

 21 20  0  0  0  0  0  0  0  0999 V2000
   -5.2536   -2.5459    1.6446 C   0  0  0  0  0  0  0  0  0  0  0  0
   -5.2219   -2.4261    2.6437 H   0  0  0  0  0  0  0  0  0  0  0  0
   -5.8022   -3.3644    1.4382 H   0  0  0  0  0  0  0  0  0  0  0  0
   -5.7377   -1.6762    1.2003 H   0  0  0  0  0  0  0  0  0  0  0  0
   -3.8337   -2.7884    1.1514 C   0  0  0  0  0  0  0  0  0  0  0  0
   -3.4107   -2.0569    0.1277 N   0  0  0  0  0  0  0  0  0  0  0  0
   -2.4760   -2.1579   -0.2390 H   0  0  0  0  0  0  0  0  0  0  0  0
   -4.0569   -1.3809   -0.2886 H   0  0  0  0  0  0  0  0  0  0  0  0
   -3.1411   -3.6452    1.6847 O   0  0  0  0  0  0  0  0  0  0  0  0
   -0.1721    2.6549   -0.0301 C   0  0  0  0  0  0  0  0  0  0  0  0
   -1.0244    2.8944    0.4440 H   0  0  0  0  0  0  0  0  0  0  0  0
   -0.2412    2.9481   -0.9879 H   0  0  0  0  0  0  0  0  0  0  0  0
    0.6564    3.1831    0.4419 H   0  0  0  0  0  0  0  0  0  0  0  0
   -0.0170    1.1673   -0.0019 C   0  0  0  0  0  0  0  0  0  0  0  0
    1.0912    0.3888   -0.0000 C   0  0  0  0  0  0  0  0  0  0  0  0
    2.0365    0.7039    0.0019 H   0  0  0  0  0  0  0  0  0  0  0  0
    0.6694   -0.9178    0.0001 N   0  0  0  0  0  0  0  0  0  0  0  0
   -0.6524   -0.9421    0.0018 C   0  0  0  0  0  0  0  0  0  0  0  0
   -1.2187   -1.7613    0.0052 H   0  0  0  0  0  0  0  0  0  0  0  0
   -1.0912    0.3039    0.0000 N   0  0  0  0  0  0  0  0  0  0  0  0
   -2.0524    0.5807   -0.0010 H   0  0  0  0  0  0  0  0  0  0  0  0
  1  5  1  0
  5  6  1  0
  5  9  2  0
  1  2  1  0
  1  3  1  0
  1  4  1  0
  6  7  1  0
  6  8  1  0
 10 14  1  0
 14 15  2  0
 15 17  1  0
 17 18  2  0
 18 20  1  0
 20 14  1  0
 10 11  1  0
 10 12  1  0
 10 13  1  0
 15 16  1  0
 18 19  1  0
 20 21  1  0
M  END
>  <PDB_ID>  (119) 
pdb1u0m

>  <RESIDUE_NAME>  (119) 
GLN   HID

>  <FRAG_NAME>  (119) 
ACEM   MIMD

>  <FRAG_ATOM_NUM>  (119) 
fragi: 9  fragj: 12

>  <atom.prop.CHAIN_ID>  (119) 
A A A A A A A A A Z Z Z Z Z Z Z Z Z Z Z Z

>  <atom.prop.IS_HEAVY_ATOM>  (119) 
1 0 0 0 1 1 0 0 1 1 0 0 0 1 1 0 1 1 0 1 0

>  <DIFUSE_FUNC_ATOM>  (119) 
n/a

>  <FINAL_SINGLE_POINT_ENERGY>  (119) 
0

>  <NONCOV_INTER_ENERGY_QM>  (119) 
0

>  <FF_Energy>  (119) 
4.39

>  <QM_Energy>  (119) 
10.03

>  <source>  (119) 
ACEM_MIMD

>  <Index>  (119) 
13305

$$$$
ACEM-pdb1u61-A-ASN-111:MIMD-pdb1u61-A-HID-106
     RDKit          3D

 21 20  0  0  0  0  0  0  0  0999 V2000
   -3.5452    1.3395    2.1417 C   0  0  0  0  0  0  0  0  0  0  0  0
   -2.8576    1.7598    1.5564 H   0  0  0  0  0  0  0  0  0  0  0  0
   -3.1123    0.7178    2.7885 H   0  0  0  0  0  0  0  0  0  0  0  0
   -4.0520    2.1255    2.7018 H   0  0  0  0  0  0  0  0  0  0  0  0
   -4.4942    0.5203    1.2530 C   0  0  0  0  0  0  0  0  0  0  0  0
   -3.9471   -0.0787    0.1693 N   0  0  0  0  0  0  0  0  0  0  0  0
   -2.9677    0.0350    0.0078 H   0  0  0  0  0  0  0  0  0  0  0  0
   -4.5141   -0.6124   -0.4382 H   0  0  0  0  0  0  0  0  0  0  0  0
   -5.6908    0.4136    1.5399 O   0  0  0  0  0  0  0  0  0  0  0  0
   -0.1828    2.6589   -0.0062 C   0  0  0  0  0  0  0  0  0  0  0  0
    0.7135    3.0802   -0.1699 H   0  0  0  0  0  0  0  0  0  0  0  0
   -0.5140    2.9448    0.8973 H   0  0  0  0  0  0  0  0  0  0  0  0
   -0.8807    3.0169   -0.7631 H   0  0  0  0  0  0  0  0  0  0  0  0
   -0.0156    1.1698   -0.0015 C   0  0  0  0  0  0  0  0  0  0  0  0
    1.0910    0.3898    0.0000 C   0  0  0  0  0  0  0  0  0  0  0  0
    2.0369    0.7031    0.0062 H   0  0  0  0  0  0  0  0  0  0  0  0
    0.6687   -0.9196   -0.0065 N   0  0  0  0  0  0  0  0  0  0  0  0
   -0.6531   -0.9441    0.0079 C   0  0  0  0  0  0  0  0  0  0  0  0
   -1.2201   -1.7609    0.0232 H   0  0  0  0  0  0  0  0  0  0  0  0
   -1.0910    0.3042   -0.0000 N   0  0  0  0  0  0  0  0  0  0  0  0
   -2.0517    0.5813   -0.0048 H   0  0  0  0  0  0  0  0  0  0  0  0
  1  5  1  0
  5  6  1  0
  5  9  2  0
  1  2  1  0
  1  3  1  0
  1  4  1  0
  6  7  1  0
  6  8  1  0
 10 14  1  0
 14 15  2  0
 15 17  1  0
 17 18  2  0
 18 20  1  0
 20 14  1  0
 10 11  1  0
 10 12  1  0
 10 13  1  0
 15 16  1  0
 18 19  1  0
 20 21  1  0
M  END
>  <PDB_ID>  (120) 
pdb1u61

>  <RESIDUE_NAME>  (120) 
ASN   HID

>  <FRAG_NAME>  (120) 
ACEM   MIMD

>  <FRAG_ATOM_NUM>  (120) 
fragi: 9  fragj: 12

>  <atom.prop.CHAIN_ID>  (120) 
A A A A A A A A A Z Z Z Z Z Z Z Z Z Z Z Z

>  <atom.prop.IS_HEAVY_ATOM>  (120) 
1 0 0 0 1 1 0 0 1 1 0 0 0 1 1 0 1 1 0 1 0

>  <DIFUSE_FUNC_ATOM>  (120) 
n/a

>  <FINAL_SINGLE_POINT_ENERGY>  (120) 
0

>  <NONCOV_INTER_ENERGY_QM>  (120) 
0

>  <FF_Energy>  (120) 
10.31

>  <QM_Energy>  (120) 
21.7

>  <source>  (120) 
ACEM_MIMD

>  <Index>  (120) 
13432

$$$$
ACEM-pdb1ud2-A-GLN-9:MIMD-pdb1ud2-A-HID-327
     RDKit          3D

 21 20  0  0  0  0  0  0  0  0999 V2000
   -4.9139    1.1356    3.3877 C   0  0  0  0  0  0  0  0  0  0  0  0
   -4.6848    1.9914    3.8629 H   0  0  0  0  0  0  0  0  0  0  0  0
   -4.5307    0.3652    3.9078 H   0  0  0  0  0  0  0  0  0  0  0  0
   -5.9990    1.0324    3.3757 H   0  0  0  0  0  0  0  0  0  0  0  0
   -4.2711    1.1596    2.0103 C   0  0  0  0  0  0  0  0  0  0  0  0
   -2.9492    1.2385    1.9643 N   0  0  0  0  0  0  0  0  0  0  0  0
   -2.4531    1.2442    1.0808 H   0  0  0  0  0  0  0  0  0  0  0  0
   -2.4303    1.2936    2.8427 H   0  0  0  0  0  0  0  0  0  0  0  0
   -4.9677    1.1095    0.9947 O   0  0  0  0  0  0  0  0  0  0  0  0
   -0.1770    2.6543   -0.0365 C   0  0  0  0  0  0  0  0  0  0  0  0
    0.7345    3.0728    0.0297 H   0  0  0  0  0  0  0  0  0  0  0  0
   -0.7166    2.9331    0.7650 H   0  0  0  0  0  0  0  0  0  0  0  0
   -0.6698    3.0172   -0.9384 H   0  0  0  0  0  0  0  0  0  0  0  0
   -0.0169    1.1674   -0.0019 C   0  0  0  0  0  0  0  0  0  0  0  0
    1.0916    0.3894   -0.0000 C   0  0  0  0  0  0  0  0  0  0  0  0
    2.0361    0.7047    0.0014 H   0  0  0  0  0  0  0  0  0  0  0  0
    0.6694   -0.9179    0.0011 N   0  0  0  0  0  0  0  0  0  0  0  0
   -0.6526   -0.9428    0.0008 C   0  0  0  0  0  0  0  0  0  0  0  0
   -1.2186   -1.7613    0.0020 H   0  0  0  0  0  0  0  0  0  0  0  0
   -1.0916    0.3039   -0.0000 N   0  0  0  0  0  0  0  0  0  0  0  0
   -2.0524    0.5800   -0.0001 H   0  0  0  0  0  0  0  0  0  0  0  0
  1  5  1  0
  5  6  1  0
  5  9  2  0
  1  2  1  0
  1  3  1  0
  1  4  1  0
  6  7  1  0
  6  8  1  0
 10 14  1  0
 14 15  2  0
 15 17  1  0
 17 18  2  0
 18 20  1  0
 20 14  1  0
 10 11  1  0
 10 12  1  0
 10 13  1  0
 15 16  1  0
 18 19  1  0
 20 21  1  0
M  END
>  <PDB_ID>  (121) 
pdb1ud2

>  <RESIDUE_NAME>  (121) 
GLN   HID

>  <FRAG_NAME>  (121) 
ACEM   MIMD

>  <FRAG_ATOM_NUM>  (121) 
fragi: 9  fragj: 12

>  <atom.prop.CHAIN_ID>  (121) 
A A A A A A A A A Z Z Z Z Z Z Z Z Z Z Z Z

>  <atom.prop.IS_HEAVY_ATOM>  (121) 
1 0 0 0 1 1 0 0 1 1 0 0 0 1 1 0 1 1 0 1 0

>  <DIFUSE_FUNC_ATOM>  (121) 
n/a

>  <FINAL_SINGLE_POINT_ENERGY>  (121) 
0

>  <NONCOV_INTER_ENERGY_QM>  (121) 
0

>  <FF_Energy>  (121) 
3.37

>  <QM_Energy>  (121) 
9.4

>  <source>  (121) 
ACEM_MIMD

>  <Index>  (121) 
13494

$$$$
ACEM-pdb1uiz-C-GLN-45:MIMD-pdb1uiz-A-HID-40
     RDKit          3D

 21 20  0  0  0  0  0  0  0  0999 V2000
   -0.9581   -3.9887   -2.1104 C   0  0  0  0  0  0  0  0  0  0  0  0
   -1.0354   -4.7936   -2.6954 H   0  0  0  0  0  0  0  0  0  0  0  0
   -0.0586   -3.5732   -2.2228 H   0  0  0  0  0  0  0  0  0  0  0  0
   -1.7184   -3.2657   -2.4062 H   0  0  0  0  0  0  0  0  0  0  0  0
   -1.1136   -4.4256   -0.6639 C   0  0  0  0  0  0  0  0  0  0  0  0
   -0.6698   -3.5843    0.2640 N   0  0  0  0  0  0  0  0  0  0  0  0
   -0.7533   -3.8038    1.2515 H   0  0  0  0  0  0  0  0  0  0  0  0
   -0.2404   -2.7088   -0.0331 H   0  0  0  0  0  0  0  0  0  0  0  0
   -1.6178   -5.5171   -0.3885 O   0  0  0  0  0  0  0  0  0  0  0  0
   -0.1885    2.6580    0.0763 C   0  0  0  0  0  0  0  0  0  0  0  0
    0.1196    3.0525   -0.7981 H   0  0  0  0  0  0  0  0  0  0  0  0
    0.4049    3.0115    0.8098 H   0  0  0  0  0  0  0  0  0  0  0  0
   -1.2105    2.9855    0.2667 H   0  0  0  0  0  0  0  0  0  0  0  0
   -0.0196    1.1683    0.0085 C   0  0  0  0  0  0  0  0  0  0  0  0
    1.0908    0.3922   -0.0000 C   0  0  0  0  0  0  0  0  0  0  0  0
    2.0352    0.7082   -0.0023 H   0  0  0  0  0  0  0  0  0  0  0  0
    0.6699   -0.9163   -0.0038 N   0  0  0  0  0  0  0  0  0  0  0  0
   -0.6503   -0.9441   -0.0048 C   0  0  0  0  0  0  0  0  0  0  0  0
   -1.2150   -1.7634   -0.0058 H   0  0  0  0  0  0  0  0  0  0  0  0
   -1.0908    0.2999    0.0000 N   0  0  0  0  0  0  0  0  0  0  0  0
   -2.0536    0.5755   -0.0035 H   0  0  0  0  0  0  0  0  0  0  0  0
  1  5  1  0
  5  6  1  0
  5  9  2  0
  1  2  1  0
  1  3  1  0
  1  4  1  0
  6  7  1  0
  6  8  1  0
 10 14  1  0
 14 15  2  0
 15 17  1  0
 17 18  2  0
 18 20  1  0
 20 14  1  0
 10 11  1  0
 10 12  1  0
 10 13  1  0
 15 16  1  0
 18 19  1  0
 20 21  1  0
M  END
>  <PDB_ID>  (122) 
pdb1uiz

>  <RESIDUE_NAME>  (122) 
GLN   HID

>  <FRAG_NAME>  (122) 
ACEM   MIMD

>  <FRAG_ATOM_NUM>  (122) 
fragi: 9  fragj: 12

>  <atom.prop.CHAIN_ID>  (122) 
A A A A A A A A A Z Z Z Z Z Z Z Z Z Z Z Z

>  <atom.prop.IS_HEAVY_ATOM>  (122) 
1 0 0 0 1 1 0 0 1 1 0 0 0 1 1 0 1 1 0 1 0

>  <DIFUSE_FUNC_ATOM>  (122) 
n/a

>  <FINAL_SINGLE_POINT_ENERGY>  (122) 
0

>  <NONCOV_INTER_ENERGY_QM>  (122) 
0

>  <FF_Energy>  (122) 
4.07

>  <QM_Energy>  (122) 
12.18

>  <source>  (122) 
ACEM_MIMD

>  <Index>  (122) 
13512

$$$$
ACEM-pdb1uiz-A-GLN-45:MIMD-pdb1uiz-B-HID-40
     RDKit          3D

 21 20  0  0  0  0  0  0  0  0999 V2000
   -0.9696   -4.0266   -2.0664 C   0  0  0  0  0  0  0  0  0  0  0  0
   -1.0467   -4.8348   -2.6455 H   0  0  0  0  0  0  0  0  0  0  0  0
   -0.0694   -3.6129   -2.1795 H   0  0  0  0  0  0  0  0  0  0  0  0
   -1.7277   -3.3046   -2.3696 H   0  0  0  0  0  0  0  0  0  0  0  0
   -1.1268   -4.4551   -0.6147 C   0  0  0  0  0  0  0  0  0  0  0  0
   -0.6878   -3.6047    0.3064 N   0  0  0  0  0  0  0  0  0  0  0  0
   -0.7727   -3.8171    1.2945 H   0  0  0  0  0  0  0  0  0  0  0  0
   -0.2610   -2.7300    0.0033 H   0  0  0  0  0  0  0  0  0  0  0  0
   -1.6218   -5.5476   -0.3291 O   0  0  0  0  0  0  0  0  0  0  0  0
   -0.1908    2.6575    0.0614 C   0  0  0  0  0  0  0  0  0  0  0  0
    0.1308    3.0455   -0.8108 H   0  0  0  0  0  0  0  0  0  0  0  0
    0.3932    3.0161    0.8002 H   0  0  0  0  0  0  0  0  0  0  0  0
   -1.2151    2.9872    0.2352 H   0  0  0  0  0  0  0  0  0  0  0  0
   -0.0208    1.1675    0.0065 C   0  0  0  0  0  0  0  0  0  0  0  0
    1.0904    0.3927    0.0000 C   0  0  0  0  0  0  0  0  0  0  0  0
    2.0332    0.7093   -0.0013 H   0  0  0  0  0  0  0  0  0  0  0  0
    0.6697   -0.9159   -0.0034 N   0  0  0  0  0  0  0  0  0  0  0  0
   -0.6490   -0.9442   -0.0032 C   0  0  0  0  0  0  0  0  0  0  0  0
   -1.2145   -1.7643   -0.0048 H   0  0  0  0  0  0  0  0  0  0  0  0
   -1.0904    0.3000   -0.0000 N   0  0  0  0  0  0  0  0  0  0  0  0
   -2.0536    0.5735   -0.0024 H   0  0  0  0  0  0  0  0  0  0  0  0
  1  5  1  0
  5  6  1  0
  5  9  2  0
  1  2  1  0
  1  3  1  0
  1  4  1  0
  6  7  1  0
  6  8  1  0
 10 14  1  0
 14 15  2  0
 15 17  1  0
 17 18  2  0
 18 20  1  0
 20 14  1  0
 10 11  1  0
 10 12  1  0
 10 13  1  0
 15 16  1  0
 18 19  1  0
 20 21  1  0
M  END
>  <PDB_ID>  (123) 
pdb1uiz

>  <RESIDUE_NAME>  (123) 
GLN   HID

>  <FRAG_NAME>  (123) 
ACEM   MIMD

>  <FRAG_ATOM_NUM>  (123) 
fragi: 9  fragj: 12

>  <atom.prop.CHAIN_ID>  (123) 
A A A A A A A A A Z Z Z Z Z Z Z Z Z Z Z Z

>  <atom.prop.IS_HEAVY_ATOM>  (123) 
1 0 0 0 1 1 0 0 1 1 0 0 0 1 1 0 1 1 0 1 0

>  <DIFUSE_FUNC_ATOM>  (123) 
n/a

>  <FINAL_SINGLE_POINT_ENERGY>  (123) 
0

>  <NONCOV_INTER_ENERGY_QM>  (123) 
0

>  <FF_Energy>  (123) 
3.01

>  <QM_Energy>  (123) 
11.4

>  <source>  (123) 
ACEM_MIMD

>  <Index>  (123) 
13513

$$$$
ACEM-pdb1uiz-B-GLN-45:MIMD-pdb1uiz-C-HID-40
     RDKit          3D

 21 20  0  0  0  0  0  0  0  0999 V2000
   -0.9668   -4.0137   -2.0659 C   0  0  0  0  0  0  0  0  0  0  0  0
   -1.0443   -4.8272   -2.6387 H   0  0  0  0  0  0  0  0  0  0  0  0
   -0.0637   -3.6047   -2.1782 H   0  0  0  0  0  0  0  0  0  0  0  0
   -1.7231   -3.2912   -2.3729 H   0  0  0  0  0  0  0  0  0  0  0  0
   -1.1260   -4.4358   -0.6094 C   0  0  0  0  0  0  0  0  0  0  0  0
   -0.6852   -3.5863    0.3125 N   0  0  0  0  0  0  0  0  0  0  0  0
   -0.7713   -3.7955    1.2986 H   0  0  0  0  0  0  0  0  0  0  0  0
   -0.2545   -2.7125    0.0073 H   0  0  0  0  0  0  0  0  0  0  0  0
   -1.6277   -5.5243   -0.3228 O   0  0  0  0  0  0  0  0  0  0  0  0
   -0.1833    2.6598    0.0649 C   0  0  0  0  0  0  0  0  0  0  0  0
    0.1423    3.0466   -0.8062 H   0  0  0  0  0  0  0  0  0  0  0  0
    0.4015    3.0122    0.8055 H   0  0  0  0  0  0  0  0  0  0  0  0
   -1.2078    2.9897    0.2374 H   0  0  0  0  0  0  0  0  0  0  0  0
   -0.0167    1.1684    0.0065 C   0  0  0  0  0  0  0  0  0  0  0  0
    1.0929    0.3909    0.0000 C   0  0  0  0  0  0  0  0  0  0  0  0
    2.0368    0.7046   -0.0016 H   0  0  0  0  0  0  0  0  0  0  0  0
    0.6691   -0.9180   -0.0041 N   0  0  0  0  0  0  0  0  0  0  0  0
   -0.6524   -0.9426   -0.0023 C   0  0  0  0  0  0  0  0  0  0  0  0
   -1.2182   -1.7626   -0.0024 H   0  0  0  0  0  0  0  0  0  0  0  0
   -1.0929    0.3013   -0.0000 N   0  0  0  0  0  0  0  0  0  0  0  0
   -2.0528    0.5792   -0.0017 H   0  0  0  0  0  0  0  0  0  0  0  0
  1  5  1  0
  5  6  1  0
  5  9  2  0
  1  2  1  0
  1  3  1  0
  1  4  1  0
  6  7  1  0
  6  8  1  0
 10 14  1  0
 14 15  2  0
 15 17  1  0
 17 18  2  0
 18 20  1  0
 20 14  1  0
 10 11  1  0
 10 12  1  0
 10 13  1  0
 15 16  1  0
 18 19  1  0
 20 21  1  0
M  END
>  <PDB_ID>  (124) 
pdb1uiz

>  <RESIDUE_NAME>  (124) 
GLN   HID

>  <FRAG_NAME>  (124) 
ACEM   MIMD

>  <FRAG_ATOM_NUM>  (124) 
fragi: 9  fragj: 12

>  <atom.prop.CHAIN_ID>  (124) 
A A A A A A A A A Z Z Z Z Z Z Z Z Z Z Z Z

>  <atom.prop.IS_HEAVY_ATOM>  (124) 
1 0 0 0 1 1 0 0 1 1 0 0 0 1 1 0 1 1 0 1 0

>  <DIFUSE_FUNC_ATOM>  (124) 
n/a

>  <FINAL_SINGLE_POINT_ENERGY>  (124) 
0

>  <NONCOV_INTER_ENERGY_QM>  (124) 
0

>  <FF_Energy>  (124) 
3.78

>  <QM_Energy>  (124) 
12.11

>  <source>  (124) 
ACEM_MIMD

>  <Index>  (124) 
13514

$$$$
ACEM-pdb1uli-D-ASN-38:MIMD-pdb1uli-D-HID-111
     RDKit          3D

 21 20  0  0  0  0  0  0  0  0999 V2000
   -4.7876    1.7247   -3.6076 C   0  0  0  0  0  0  0  0  0  0  0  0
   -4.6219    2.4193   -4.3006 H   0  0  0  0  0  0  0  0  0  0  0  0
   -5.7050    1.8207   -3.2331 H   0  0  0  0  0  0  0  0  0  0  0  0
   -4.7051    0.7431   -4.0743 H   0  0  0  0  0  0  0  0  0  0  0  0
   -3.7839    1.9173   -2.4810 C   0  0  0  0  0  0  0  0  0  0  0  0
   -3.3278    0.8215   -1.9201 N   0  0  0  0  0  0  0  0  0  0  0  0
   -3.6309   -0.0812   -2.2353 H   0  0  0  0  0  0  0  0  0  0  0  0
   -2.6652    0.8753   -1.1647 H   0  0  0  0  0  0  0  0  0  0  0  0
   -3.4273    3.0459   -2.1234 O   0  0  0  0  0  0  0  0  0  0  0  0
   -0.1648    2.6617    0.0003 C   0  0  0  0  0  0  0  0  0  0  0  0
   -0.4883    2.9498   -0.9089 H   0  0  0  0  0  0  0  0  0  0  0  0
    0.7415    3.0695    0.1585 H   0  0  0  0  0  0  0  0  0  0  0  0
   -0.8552    3.0399    0.7541 H   0  0  0  0  0  0  0  0  0  0  0  0
   -0.0151    1.1682   -0.0037 C   0  0  0  0  0  0  0  0  0  0  0  0
    1.0928    0.3859   -0.0000 C   0  0  0  0  0  0  0  0  0  0  0  0
    2.0378    0.7014    0.0018 H   0  0  0  0  0  0  0  0  0  0  0  0
    0.6696   -0.9186    0.0020 N   0  0  0  0  0  0  0  0  0  0  0  0
   -0.6545   -0.9424    0.0017 C   0  0  0  0  0  0  0  0  0  0  0  0
   -1.2216   -1.7592    0.0042 H   0  0  0  0  0  0  0  0  0  0  0  0
   -1.0928    0.3069    0.0000 N   0  0  0  0  0  0  0  0  0  0  0  0
   -2.0523    0.5848    0.0004 H   0  0  0  0  0  0  0  0  0  0  0  0
  1  5  1  0
  5  6  1  0
  5  9  2  0
  1  2  1  0
  1  3  1  0
  1  4  1  0
  6  7  1  0
  6  8  1  0
 10 14  1  0
 14 15  2  0
 15 17  1  0
 17 18  2  0
 18 20  1  0
 20 14  1  0
 10 11  1  0
 10 12  1  0
 10 13  1  0
 15 16  1  0
 18 19  1  0
 20 21  1  0
M  END
>  <PDB_ID>  (125) 
pdb1uli

>  <RESIDUE_NAME>  (125) 
ASN   HID

>  <FRAG_NAME>  (125) 
ACEM   MIMD

>  <FRAG_ATOM_NUM>  (125) 
fragi: 9  fragj: 12

>  <atom.prop.CHAIN_ID>  (125) 
A A A A A A A A A Z Z Z Z Z Z Z Z Z Z Z Z

>  <atom.prop.IS_HEAVY_ATOM>  (125) 
1 0 0 0 1 1 0 0 1 1 0 0 0 1 1 0 1 1 0 1 0

>  <DIFUSE_FUNC_ATOM>  (125) 
n/a

>  <FINAL_SINGLE_POINT_ENERGY>  (125) 
0

>  <NONCOV_INTER_ENERGY_QM>  (125) 
0

>  <FF_Energy>  (125) 
2.9

>  <QM_Energy>  (125) 
8.27

>  <source>  (125) 
ACEM_MIMD

>  <Index>  (125) 
13542

$$$$
ACEM-pdb1uli-F-ASN-38:MIMD-pdb1uli-F-HID-111
     RDKit          3D

 21 20  0  0  0  0  0  0  0  0999 V2000
   -5.0147    1.6733   -3.2510 C   0  0  0  0  0  0  0  0  0  0  0  0
   -4.8455    2.3408   -3.9723 H   0  0  0  0  0  0  0  0  0  0  0  0
   -5.9197    1.8171   -2.8576 H   0  0  0  0  0  0  0  0  0  0  0  0
   -4.9836    0.6759   -3.6894 H   0  0  0  0  0  0  0  0  0  0  0  0
   -3.9774    1.8687   -2.1593 C   0  0  0  0  0  0  0  0  0  0  0  0
   -3.5616    0.7730   -1.5429 N   0  0  0  0  0  0  0  0  0  0  0  0
   -3.9240   -0.1225   -1.8082 H   0  0  0  0  0  0  0  0  0  0  0  0
   -2.8816    0.8341   -0.8096 H   0  0  0  0  0  0  0  0  0  0  0  0
   -3.5661    3.0030   -1.8604 O   0  0  0  0  0  0  0  0  0  0  0  0
   -0.1710    2.6591   -0.0251 C   0  0  0  0  0  0  0  0  0  0  0  0
   -0.5911    2.9217   -0.9035 H   0  0  0  0  0  0  0  0  0  0  0  0
    0.7496    3.0694    0.0155 H   0  0  0  0  0  0  0  0  0  0  0  0
   -0.7745    3.0533    0.7924 H   0  0  0  0  0  0  0  0  0  0  0  0
   -0.0164    1.1690   -0.0098 C   0  0  0  0  0  0  0  0  0  0  0  0
    1.0927    0.3872    0.0000 C   0  0  0  0  0  0  0  0  0  0  0  0
    2.0375    0.7009   -0.0005 H   0  0  0  0  0  0  0  0  0  0  0  0
    0.6685   -0.9209    0.0115 N   0  0  0  0  0  0  0  0  0  0  0  0
   -0.6521   -0.9426   -0.0016 C   0  0  0  0  0  0  0  0  0  0  0  0
   -1.2220   -1.7590   -0.0097 H   0  0  0  0  0  0  0  0  0  0  0  0
   -1.0927    0.3073   -0.0000 N   0  0  0  0  0  0  0  0  0  0  0  0
   -2.0525    0.5827    0.0065 H   0  0  0  0  0  0  0  0  0  0  0  0
  1  5  1  0
  5  6  1  0
  5  9  2  0
  1  2  1  0
  1  3  1  0
  1  4  1  0
  6  7  1  0
  6  8  1  0
 10 14  1  0
 14 15  2  0
 15 17  1  0
 17 18  2  0
 18 20  1  0
 20 14  1  0
 10 11  1  0
 10 12  1  0
 10 13  1  0
 15 16  1  0
 18 19  1  0
 20 21  1  0
M  END
>  <PDB_ID>  (126) 
pdb1uli

>  <RESIDUE_NAME>  (126) 
ASN   HID

>  <FRAG_NAME>  (126) 
ACEM   MIMD

>  <FRAG_ATOM_NUM>  (126) 
fragi: 9  fragj: 12

>  <atom.prop.CHAIN_ID>  (126) 
A A A A A A A A A Z Z Z Z Z Z Z Z Z Z Z Z

>  <atom.prop.IS_HEAVY_ATOM>  (126) 
1 0 0 0 1 1 0 0 1 1 0 0 0 1 1 0 1 1 0 1 0

>  <DIFUSE_FUNC_ATOM>  (126) 
n/a

>  <FINAL_SINGLE_POINT_ENERGY>  (126) 
0

>  <NONCOV_INTER_ENERGY_QM>  (126) 
0

>  <FF_Energy>  (126) 
5.44

>  <QM_Energy>  (126) 
14.44

>  <source>  (126) 
ACEM_MIMD

>  <Index>  (126) 
13545

$$$$
ACEM-pdb1v0e-C-GLN-330:MIMD-pdb1v0e-C-HID-527
     RDKit          3D

 21 20  0  0  0  0  0  0  0  0999 V2000
   -4.3258   -2.5252    0.4584 C   0  0  0  0  0  0  0  0  0  0  0  0
   -5.0647   -3.1899    0.5963 H   0  0  0  0  0  0  0  0  0  0  0  0
   -4.5748   -1.6638    0.9079 H   0  0  0  0  0  0  0  0  0  0  0  0
   -3.4245   -2.9119    0.9339 H   0  0  0  0  0  0  0  0  0  0  0  0
   -4.1857   -2.2640   -1.0452 C   0  0  0  0  0  0  0  0  0  0  0  0
   -2.9757   -2.0519   -1.5264 N   0  0  0  0  0  0  0  0  0  0  0  0
   -2.8162   -1.8887   -2.5049 H   0  0  0  0  0  0  0  0  0  0  0  0
   -2.1824   -2.0557   -0.8731 H   0  0  0  0  0  0  0  0  0  0  0  0
   -5.1913   -2.2415   -1.7479 O   0  0  0  0  0  0  0  0  0  0  0  0
   -0.1771    2.6689    0.0409 C   0  0  0  0  0  0  0  0  0  0  0  0
   -1.0887    2.8935   -0.3258 H   0  0  0  0  0  0  0  0  0  0  0  0
    0.5157    3.0663   -0.5731 H   0  0  0  0  0  0  0  0  0  0  0  0
   -0.0757    3.1368    1.0201 H   0  0  0  0  0  0  0  0  0  0  0  0
   -0.0173    1.1706    0.0312 C   0  0  0  0  0  0  0  0  0  0  0  0
    1.0910    0.3916    0.0000 C   0  0  0  0  0  0  0  0  0  0  0  0
    2.0360    0.7054   -0.0059 H   0  0  0  0  0  0  0  0  0  0  0  0
    0.6683   -0.9194   -0.0206 N   0  0  0  0  0  0  0  0  0  0  0  0
   -0.6510   -0.9450   -0.0106 C   0  0  0  0  0  0  0  0  0  0  0  0
   -1.2181   -1.7629   -0.0101 H   0  0  0  0  0  0  0  0  0  0  0  0
   -1.0910    0.3021   -0.0000 N   0  0  0  0  0  0  0  0  0  0  0  0
   -2.0519    0.5778   -0.0130 H   0  0  0  0  0  0  0  0  0  0  0  0
  1  5  1  0
  5  6  1  0
  5  9  2  0
  1  2  1  0
  1  3  1  0
  1  4  1  0
  6  7  1  0
  6  8  1  0
 10 14  1  0
 14 15  2  0
 15 17  1  0
 17 18  2  0
 18 20  1  0
 20 14  1  0
 10 11  1  0
 10 12  1  0
 10 13  1  0
 15 16  1  0
 18 19  1  0
 20 21  1  0
M  END
>  <PDB_ID>  (127) 
pdb1v0e

>  <RESIDUE_NAME>  (127) 
GLN   HID

>  <FRAG_NAME>  (127) 
ACEM   MIMD

>  <FRAG_ATOM_NUM>  (127) 
fragi: 9  fragj: 12

>  <atom.prop.CHAIN_ID>  (127) 
A A A A A A A A A Z Z Z Z Z Z Z Z Z Z Z Z

>  <atom.prop.IS_HEAVY_ATOM>  (127) 
1 0 0 0 1 1 0 0 1 1 0 0 0 1 1 0 1 1 0 1 0

>  <DIFUSE_FUNC_ATOM>  (127) 
n/a

>  <FINAL_SINGLE_POINT_ENERGY>  (127) 
0

>  <NONCOV_INTER_ENERGY_QM>  (127) 
0

>  <FF_Energy>  (127) 
1.94

>  <QM_Energy>  (127) 
7.89

>  <source>  (127) 
ACEM_MIMD

>  <Index>  (127) 
13657

$$$$
ACEM-pdb1v2i-B-GLN-433:MIMD-pdb1v2i-B-HID-429
     RDKit          3D

 21 20  0  0  0  0  0  0  0  0999 V2000
   -4.1849   -0.8137    1.3819 C   0  0  0  0  0  0  0  0  0  0  0  0
   -3.3696   -1.0866    1.8937 H   0  0  0  0  0  0  0  0  0  0  0  0
   -4.0169   -0.9316    0.4023 H   0  0  0  0  0  0  0  0  0  0  0  0
   -5.0022   -1.4758    1.6679 H   0  0  0  0  0  0  0  0  0  0  0  0
   -4.4569    0.6721    1.6556 C   0  0  0  0  0  0  0  0  0  0  0  0
   -3.6605    1.5207    1.0442 N   0  0  0  0  0  0  0  0  0  0  0  0
   -3.7857    2.5290    1.1638 H   0  0  0  0  0  0  0  0  0  0  0  0
   -2.9145    1.1679    0.4485 H   0  0  0  0  0  0  0  0  0  0  0  0
   -5.3653    1.0441    2.4245 O   0  0  0  0  0  0  0  0  0  0  0  0
   -0.1733    2.6395   -0.0824 C   0  0  0  0  0  0  0  0  0  0  0  0
    0.6196    3.0658    0.3693 H   0  0  0  0  0  0  0  0  0  0  0  0
   -1.0028    2.8953    0.4294 H   0  0  0  0  0  0  0  0  0  0  0  0
   -0.2513    3.0138   -1.1031 H   0  0  0  0  0  0  0  0  0  0  0  0
   -0.0159    1.1637   -0.0074 C   0  0  0  0  0  0  0  0  0  0  0  0
    1.0905    0.3869    0.0000 C   0  0  0  0  0  0  0  0  0  0  0  0
    2.0358    0.7026    0.0029 H   0  0  0  0  0  0  0  0  0  0  0  0
    0.6680   -0.9156    0.0037 N   0  0  0  0  0  0  0  0  0  0  0  0
   -0.6521   -0.9395    0.0038 C   0  0  0  0  0  0  0  0  0  0  0  0
   -1.2187   -1.7584    0.0083 H   0  0  0  0  0  0  0  0  0  0  0  0
   -1.0905    0.3044   -0.0000 N   0  0  0  0  0  0  0  0  0  0  0  0
   -2.0518    0.5821    0.0013 H   0  0  0  0  0  0  0  0  0  0  0  0
  1  5  1  0
  5  6  1  0
  5  9  2  0
  1  2  1  0
  1  3  1  0
  1  4  1  0
  6  7  1  0
  6  8  1  0
 10 14  1  0
 14 15  2  0
 15 17  1  0
 17 18  2  0
 18 20  1  0
 20 14  1  0
 10 11  1  0
 10 12  1  0
 10 13  1  0
 15 16  1  0
 18 19  1  0
 20 21  1  0
M  END
>  <PDB_ID>  (128) 
pdb1v2i

>  <RESIDUE_NAME>  (128) 
GLN   HID

>  <FRAG_NAME>  (128) 
ACEM   MIMD

>  <FRAG_ATOM_NUM>  (128) 
fragi: 9  fragj: 12

>  <atom.prop.CHAIN_ID>  (128) 
A A A A A A A A A Z Z Z Z Z Z Z Z Z Z Z Z

>  <atom.prop.IS_HEAVY_ATOM>  (128) 
1 0 0 0 1 1 0 0 1 1 0 0 0 1 1 0 1 1 0 1 0

>  <DIFUSE_FUNC_ATOM>  (128) 
n/a

>  <FINAL_SINGLE_POINT_ENERGY>  (128) 
0

>  <NONCOV_INTER_ENERGY_QM>  (128) 
0

>  <FF_Energy>  (128) 
7.91

>  <QM_Energy>  (128) 
17.23

>  <source>  (128) 
ACEM_MIMD

>  <Index>  (128) 
13673

$$$$
ACEM-pdb1vbl-A-GLN-326:MIMD-pdb1vbl-A-HID-295
     RDKit          3D

 21 20  0  0  0  0  0  0  0  0999 V2000
   -3.2208   -4.1978   -0.1025 C   0  0  0  0  0  0  0  0  0  0  0  0
   -3.8624   -4.8725   -0.4533 H   0  0  0  0  0  0  0  0  0  0  0  0
   -3.5141   -3.2797   -0.3484 H   0  0  0  0  0  0  0  0  0  0  0  0
   -3.1745   -4.2791    0.9835 H   0  0  0  0  0  0  0  0  0  0  0  0
   -1.8629   -4.4542   -0.7290 C   0  0  0  0  0  0  0  0  0  0  0  0
   -1.0404   -3.4162   -0.7964 N   0  0  0  0  0  0  0  0  0  0  0  0
   -0.1066   -3.5146   -1.1913 H   0  0  0  0  0  0  0  0  0  0  0  0
   -1.3563   -2.5134   -0.4466 H   0  0  0  0  0  0  0  0  0  0  0  0
   -1.5668   -5.5644   -1.1699 O   0  0  0  0  0  0  0  0  0  0  0  0
   -0.1817    2.6571    0.0477 C   0  0  0  0  0  0  0  0  0  0  0  0
    0.0484    3.0267   -0.8598 H   0  0  0  0  0  0  0  0  0  0  0  0
    0.4735    3.0260    0.7161 H   0  0  0  0  0  0  0  0  0  0  0  0
   -1.1854    2.9838    0.3197 H   0  0  0  0  0  0  0  0  0  0  0  0
   -0.0181    1.1670    0.0032 C   0  0  0  0  0  0  0  0  0  0  0  0
    1.0912    0.3911   -0.0000 C   0  0  0  0  0  0  0  0  0  0  0  0
    2.0351    0.7060   -0.0014 H   0  0  0  0  0  0  0  0  0  0  0  0
    0.6694   -0.9181   -0.0006 N   0  0  0  0  0  0  0  0  0  0  0  0
   -0.6513   -0.9430   -0.0026 C   0  0  0  0  0  0  0  0  0  0  0  0
   -1.2173   -1.7623   -0.0049 H   0  0  0  0  0  0  0  0  0  0  0  0
   -1.0912    0.3030    0.0000 N   0  0  0  0  0  0  0  0  0  0  0  0
   -2.0527    0.5785   -0.0012 H   0  0  0  0  0  0  0  0  0  0  0  0
  1  5  1  0
  5  6  1  0
  5  9  2  0
  1  2  1  0
  1  3  1  0
  1  4  1  0
  6  7  1  0
  6  8  1  0
 10 14  1  0
 14 15  2  0
 15 17  1  0
 17 18  2  0
 18 20  1  0
 20 14  1  0
 10 11  1  0
 10 12  1  0
 10 13  1  0
 15 16  1  0
 18 19  1  0
 20 21  1  0
M  END
>  <PDB_ID>  (129) 
pdb1vbl

>  <RESIDUE_NAME>  (129) 
GLN   HID

>  <FRAG_NAME>  (129) 
ACEM   MIMD

>  <FRAG_ATOM_NUM>  (129) 
fragi: 9  fragj: 12

>  <atom.prop.CHAIN_ID>  (129) 
A A A A A A A A A Z Z Z Z Z Z Z Z Z Z Z Z

>  <atom.prop.IS_HEAVY_ATOM>  (129) 
1 0 0 0 1 1 0 0 1 1 0 0 0 1 1 0 1 1 0 1 0

>  <DIFUSE_FUNC_ATOM>  (129) 
n/a

>  <FINAL_SINGLE_POINT_ENERGY>  (129) 
0

>  <NONCOV_INTER_ENERGY_QM>  (129) 
0

>  <FF_Energy>  (129) 
18.63

>  <QM_Energy>  (129) 
42.63

>  <source>  (129) 
ACEM_MIMD

>  <Index>  (129) 
13758

$$$$
ACEM-pdb1vp5-A-GLN-113:MIMD-pdb1vp5-A-HID-272
     RDKit          3D

 21 20  0  0  0  0  0  0  0  0999 V2000
   -4.7397   -3.7756    1.1630 C   0  0  0  0  0  0  0  0  0  0  0  0
   -4.7534   -4.5892    1.7350 H   0  0  0  0  0  0  0  0  0  0  0  0
   -5.3453   -3.8914    0.3823 H   0  0  0  0  0  0  0  0  0  0  0  0
   -5.1363   -2.9545    1.7601 H   0  0  0  0  0  0  0  0  0  0  0  0
   -3.3145   -3.5312    0.6667 C   0  0  0  0  0  0  0  0  0  0  0  0
   -2.8986   -2.2841    0.7057 N   0  0  0  0  0  0  0  0  0  0  0  0
   -1.9512   -2.0395    0.4034 H   0  0  0  0  0  0  0  0  0  0  0  0
   -3.5281   -1.5563    1.0387 H   0  0  0  0  0  0  0  0  0  0  0  0
   -2.6076   -4.4565    0.2275 O   0  0  0  0  0  0  0  0  0  0  0  0
   -0.1865    2.6568    0.0039 C   0  0  0  0  0  0  0  0  0  0  0  0
    0.5524    3.0480    0.5625 H   0  0  0  0  0  0  0  0  0  0  0  0
   -1.0663    2.8691    0.4400 H   0  0  0  0  0  0  0  0  0  0  0  0
   -0.1622    3.1075   -0.9883 H   0  0  0  0  0  0  0  0  0  0  0  0
   -0.0208    1.1704   -0.0189 C   0  0  0  0  0  0  0  0  0  0  0  0
    1.0886    0.3916    0.0000 C   0  0  0  0  0  0  0  0  0  0  0  0
    2.0337    0.7069    0.0104 H   0  0  0  0  0  0  0  0  0  0  0  0
    0.6722   -0.9256    0.0046 N   0  0  0  0  0  0  0  0  0  0  0  0
   -0.6514   -0.9419    0.0143 C   0  0  0  0  0  0  0  0  0  0  0  0
   -1.2211   -1.7595    0.0303 H   0  0  0  0  0  0  0  0  0  0  0  0
   -1.0886    0.3056   -0.0000 N   0  0  0  0  0  0  0  0  0  0  0  0
   -2.0532    0.5789    0.0027 H   0  0  0  0  0  0  0  0  0  0  0  0
  1  5  1  0
  5  6  1  0
  5  9  2  0
  1  2  1  0
  1  3  1  0
  1  4  1  0
  6  7  1  0
  6  8  1  0
 10 14  1  0
 14 15  2  0
 15 17  1  0
 17 18  2  0
 18 20  1  0
 20 14  1  0
 10 11  1  0
 10 12  1  0
 10 13  1  0
 15 16  1  0
 18 19  1  0
 20 21  1  0
M  END
>  <PDB_ID>  (130) 
pdb1vp5

>  <RESIDUE_NAME>  (130) 
GLN   HID

>  <FRAG_NAME>  (130) 
ACEM   MIMD

>  <FRAG_ATOM_NUM>  (130) 
fragi: 9  fragj: 12

>  <atom.prop.CHAIN_ID>  (130) 
A A A A A A A A A Z Z Z Z Z Z Z Z Z Z Z Z

>  <atom.prop.IS_HEAVY_ATOM>  (130) 
1 0 0 0 1 1 0 0 1 1 0 0 0 1 1 0 1 1 0 1 0

>  <DIFUSE_FUNC_ATOM>  (130) 
n/a

>  <FINAL_SINGLE_POINT_ENERGY>  (130) 
0

>  <NONCOV_INTER_ENERGY_QM>  (130) 
0

>  <FF_Energy>  (130) 
18.17

>  <QM_Energy>  (130) 
44.48

>  <source>  (130) 
ACEM_MIMD

>  <Index>  (130) 
13893

$$$$
ACEM-pdb1vp5-B-GLN-113:MIMD-pdb1vp5-B-HID-272
     RDKit          3D

 21 20  0  0  0  0  0  0  0  0999 V2000
   -4.8021   -3.7787    0.9542 C   0  0  0  0  0  0  0  0  0  0  0  0
   -4.8277   -4.6013    1.5269 H   0  0  0  0  0  0  0  0  0  0  0  0
   -5.3708   -3.9277    0.1416 H   0  0  0  0  0  0  0  0  0  0  0  0
   -5.2214   -2.9487    1.5228 H   0  0  0  0  0  0  0  0  0  0  0  0
   -3.3752   -3.5417    0.5110 C   0  0  0  0  0  0  0  0  0  0  0  0
   -2.9546   -2.3147    0.6007 N   0  0  0  0  0  0  0  0  0  0  0  0
   -1.9862   -2.0615    0.3328 H   0  0  0  0  0  0  0  0  0  0  0  0
   -3.5793   -1.5831    0.9391 H   0  0  0  0  0  0  0  0  0  0  0  0
   -2.6688   -4.4582    0.1063 O   0  0  0  0  0  0  0  0  0  0  0  0
   -0.1693    2.6390   -0.0125 C   0  0  0  0  0  0  0  0  0  0  0  0
    0.5507    3.0361    0.5635 H   0  0  0  0  0  0  0  0  0  0  0  0
   -1.0630    2.8655    0.3831 H   0  0  0  0  0  0  0  0  0  0  0  0
   -0.1064    3.0840   -1.0056 H   0  0  0  0  0  0  0  0  0  0  0  0
   -0.0124    1.1652   -0.0278 C   0  0  0  0  0  0  0  0  0  0  0  0
    1.0962    0.3852    0.0000 C   0  0  0  0  0  0  0  0  0  0  0  0
    2.0396    0.6964    0.0136 H   0  0  0  0  0  0  0  0  0  0  0  0
    0.6664   -0.9203    0.0079 N   0  0  0  0  0  0  0  0  0  0  0  0
   -0.6541   -0.9380    0.0198 C   0  0  0  0  0  0  0  0  0  0  0  0
   -1.2239   -1.7578    0.0420 H   0  0  0  0  0  0  0  0  0  0  0  0
   -1.0962    0.3079   -0.0000 N   0  0  0  0  0  0  0  0  0  0  0  0
   -2.0520    0.5867    0.0034 H   0  0  0  0  0  0  0  0  0  0  0  0
  1  5  1  0
  5  6  1  0
  5  9  2  0
  1  2  1  0
  1  3  1  0
  1  4  1  0
  6  7  1  0
  6  8  1  0
 10 14  1  0
 14 15  2  0
 15 17  1  0
 17 18  2  0
 18 20  1  0
 20 14  1  0
 10 11  1  0
 10 12  1  0
 10 13  1  0
 15 16  1  0
 18 19  1  0
 20 21  1  0
M  END
>  <PDB_ID>  (131) 
pdb1vp5

>  <RESIDUE_NAME>  (131) 
GLN   HID

>  <FRAG_NAME>  (131) 
ACEM   MIMD

>  <FRAG_ATOM_NUM>  (131) 
fragi: 9  fragj: 12

>  <atom.prop.CHAIN_ID>  (131) 
A A A A A A A A A Z Z Z Z Z Z Z Z Z Z Z Z

>  <atom.prop.IS_HEAVY_ATOM>  (131) 
1 0 0 0 1 1 0 0 1 1 0 0 0 1 1 0 1 1 0 1 0

>  <DIFUSE_FUNC_ATOM>  (131) 
n/a

>  <FINAL_SINGLE_POINT_ENERGY>  (131) 
0

>  <NONCOV_INTER_ENERGY_QM>  (131) 
0

>  <FF_Energy>  (131) 
16.7

>  <QM_Energy>  (131) 
42.73

>  <source>  (131) 
ACEM_MIMD

>  <Index>  (131) 
13894

$$$$
ACEM-pdb1vqz-A-ASN-83:MIMD-pdb1vqz-A-HID-77
     RDKit          3D

 21 20  0  0  0  0  0  0  0  0999 V2000
   -4.4956   -2.9555   -2.1484 C   0  0  0  0  0  0  0  0  0  0  0  0
   -5.4016   -2.5853   -2.0110 H   0  0  0  0  0  0  0  0  0  0  0  0
   -4.3711   -3.8008   -1.6519 H   0  0  0  0  0  0  0  0  0  0  0  0
   -4.3726   -3.1656   -3.2108 H   0  0  0  0  0  0  0  0  0  0  0  0
   -3.4647   -1.9315   -1.6390 C   0  0  0  0  0  0  0  0  0  0  0  0
   -2.2215   -2.2806   -1.7754 N   0  0  0  0  0  0  0  0  0  0  0  0
   -1.9575   -3.1551   -2.1908 H   0  0  0  0  0  0  0  0  0  0  0  0
   -1.4794   -1.6634   -1.4590 H   0  0  0  0  0  0  0  0  0  0  0  0
   -3.7986   -0.8097   -1.2100 O   0  0  0  0  0  0  0  0  0  0  0  0
   -0.1616    2.6529    0.0193 C   0  0  0  0  0  0  0  0  0  0  0  0
   -0.0412    3.0074    0.9570 H   0  0  0  0  0  0  0  0  0  0  0  0
   -1.0992    2.8783   -0.2796 H   0  0  0  0  0  0  0  0  0  0  0  0
    0.5427    3.1634   -0.6375 H   0  0  0  0  0  0  0  0  0  0  0  0
   -0.0177    1.1691    0.0507 C   0  0  0  0  0  0  0  0  0  0  0  0
    1.0926    0.3836    0.0000 C   0  0  0  0  0  0  0  0  0  0  0  0
    2.0376    0.7026   -0.0039 H   0  0  0  0  0  0  0  0  0  0  0  0
    0.6708   -0.9198   -0.0429 N   0  0  0  0  0  0  0  0  0  0  0  0
   -0.6531   -0.9412   -0.0078 C   0  0  0  0  0  0  0  0  0  0  0  0
   -1.2202   -1.7583    0.0102 H   0  0  0  0  0  0  0  0  0  0  0  0
   -1.0926    0.3084    0.0000 N   0  0  0  0  0  0  0  0  0  0  0  0
   -2.0527    0.5843   -0.0257 H   0  0  0  0  0  0  0  0  0  0  0  0
  1  5  1  0
  5  6  1  0
  5  9  2  0
  1  2  1  0
  1  3  1  0
  1  4  1  0
  6  7  1  0
  6  8  1  0
 10 14  1  0
 14 15  2  0
 15 17  1  0
 17 18  2  0
 18 20  1  0
 20 14  1  0
 10 11  1  0
 10 12  1  0
 10 13  1  0
 15 16  1  0
 18 19  1  0
 20 21  1  0
M  END
>  <PDB_ID>  (132) 
pdb1vqz

>  <RESIDUE_NAME>  (132) 
ASN   HID

>  <FRAG_NAME>  (132) 
ACEM   MIMD

>  <FRAG_ATOM_NUM>  (132) 
fragi: 9  fragj: 12

>  <atom.prop.CHAIN_ID>  (132) 
A A A A A A A A A Z Z Z Z Z Z Z Z Z Z Z Z

>  <atom.prop.IS_HEAVY_ATOM>  (132) 
1 0 0 0 1 1 0 0 1 1 0 0 0 1 1 0 1 1 0 1 0

>  <DIFUSE_FUNC_ATOM>  (132) 
n/a

>  <FINAL_SINGLE_POINT_ENERGY>  (132) 
0

>  <NONCOV_INTER_ENERGY_QM>  (132) 
0

>  <FF_Energy>  (132) 
-2.47

>  <QM_Energy>  (132) 
3.78

>  <source>  (132) 
ACEM_MIMD

>  <Index>  (132) 
13938

$$$$
ACEM-pdb1w0d-A-GLN-208:MIMD-pdb1w0d-A-HID-216
     RDKit          3D

 21 20  0  0  0  0  0  0  0  0999 V2000
   -6.0143    0.4267   -0.6478 C   0  0  0  0  0  0  0  0  0  0  0  0
   -5.9049   -0.5691   -0.6030 H   0  0  0  0  0  0  0  0  0  0  0  0
   -6.5862    0.6580   -1.4383 H   0  0  0  0  0  0  0  0  0  0  0  0
   -6.5140    0.7669    0.2592 H   0  0  0  0  0  0  0  0  0  0  0  0
   -4.6607    1.0517   -0.8325 C   0  0  0  0  0  0  0  0  0  0  0  0
   -3.8155    0.9355    0.1831 N   0  0  0  0  0  0  0  0  0  0  0  0
   -2.8710    1.3222    0.1297 H   0  0  0  0  0  0  0  0  0  0  0  0
   -4.1208    0.4524    1.0273 H   0  0  0  0  0  0  0  0  0  0  0  0
   -4.3633    1.6087   -1.9049 O   0  0  0  0  0  0  0  0  0  0  0  0
   -0.1815    2.6549    0.0076 C   0  0  0  0  0  0  0  0  0  0  0  0
   -1.0909    2.8674    0.3732 H   0  0  0  0  0  0  0  0  0  0  0  0
   -0.1206    2.9907   -0.9355 H   0  0  0  0  0  0  0  0  0  0  0  0
    0.5783    3.1448    0.6164 H   0  0  0  0  0  0  0  0  0  0  0  0
   -0.0234    1.1663   -0.0159 C   0  0  0  0  0  0  0  0  0  0  0  0
    1.0896    0.3909    0.0000 C   0  0  0  0  0  0  0  0  0  0  0  0
    2.0323    0.7100    0.0078 H   0  0  0  0  0  0  0  0  0  0  0  0
    0.6720   -0.9169    0.0044 N   0  0  0  0  0  0  0  0  0  0  0  0
   -0.6486   -0.9424    0.0114 C   0  0  0  0  0  0  0  0  0  0  0  0
   -1.2140   -1.7624    0.0246 H   0  0  0  0  0  0  0  0  0  0  0  0
   -1.0896    0.3020   -0.0000 N   0  0  0  0  0  0  0  0  0  0  0  0
   -2.0548    0.5738    0.0019 H   0  0  0  0  0  0  0  0  0  0  0  0
  1  5  1  0
  5  6  1  0
  5  9  2  0
  1  2  1  0
  1  3  1  0
  1  4  1  0
  6  7  1  0
  6  8  1  0
 10 14  1  0
 14 15  2  0
 15 17  1  0
 17 18  2  0
 18 20  1  0
 20 14  1  0
 10 11  1  0
 10 12  1  0
 10 13  1  0
 15 16  1  0
 18 19  1  0
 20 21  1  0
M  END
>  <PDB_ID>  (133) 
pdb1w0d

>  <RESIDUE_NAME>  (133) 
GLN   HID

>  <FRAG_NAME>  (133) 
ACEM   MIMD

>  <FRAG_ATOM_NUM>  (133) 
fragi: 9  fragj: 12

>  <atom.prop.CHAIN_ID>  (133) 
A A A A A A A A A Z Z Z Z Z Z Z Z Z Z Z Z

>  <atom.prop.IS_HEAVY_ATOM>  (133) 
1 0 0 0 1 1 0 0 1 1 0 0 0 1 1 0 1 1 0 1 0

>  <DIFUSE_FUNC_ATOM>  (133) 
n/a

>  <FINAL_SINGLE_POINT_ENERGY>  (133) 
0

>  <NONCOV_INTER_ENERGY_QM>  (133) 
0

>  <FF_Energy>  (133) 
8.34

>  <QM_Energy>  (133) 
19.79

>  <source>  (133) 
ACEM_MIMD

>  <Index>  (133) 
13969

$$$$
ACEM-pdb3a12-D-GLN-312:MIMD-pdb3a12-D-HID-279
     RDKit          3D

 21 20  0  0  0  0  0  0  0  0999 V2000
   -4.9391    1.0238    1.2672 C   0  0  0  0  0  0  0  0  0  0  0  0
   -5.7127    0.3853    1.3066 H   0  0  0  0  0  0  0  0  0  0  0  0
   -5.1945    1.8715    1.7399 H   0  0  0  0  0  0  0  0  0  0  0  0
   -4.0934    0.5767    1.7897 H   0  0  0  0  0  0  0  0  0  0  0  0
   -4.6623    1.3530   -0.1970 C   0  0  0  0  0  0  0  0  0  0  0  0
   -3.4667    0.9978   -0.6594 N   0  0  0  0  0  0  0  0  0  0  0  0
   -3.2151    1.1723   -1.6297 H   0  0  0  0  0  0  0  0  0  0  0  0
   -2.8078    0.5513   -0.0279 H   0  0  0  0  0  0  0  0  0  0  0  0
   -5.5101    1.9166   -0.9045 O   0  0  0  0  0  0  0  0  0  0  0  0
   -0.1840    2.6479   -0.0019 C   0  0  0  0  0  0  0  0  0  0  0  0
   -0.9002    2.8947   -0.6602 H   0  0  0  0  0  0  0  0  0  0  0  0
    0.6809    3.0669   -0.2906 H   0  0  0  0  0  0  0  0  0  0  0  0
   -0.4550    3.0306    0.9820 H   0  0  0  0  0  0  0  0  0  0  0  0
   -0.0192    1.1662   -0.0190 C   0  0  0  0  0  0  0  0  0  0  0  0
    1.0914    0.3886   -0.0000 C   0  0  0  0  0  0  0  0  0  0  0  0
    2.0353    0.7054    0.0066 H   0  0  0  0  0  0  0  0  0  0  0  0
    0.6701   -0.9181    0.0094 N   0  0  0  0  0  0  0  0  0  0  0  0
   -0.6509   -0.9409    0.0096 C   0  0  0  0  0  0  0  0  0  0  0  0
   -1.2182   -1.7600    0.0164 H   0  0  0  0  0  0  0  0  0  0  0  0
   -1.0914    0.3042    0.0000 N   0  0  0  0  0  0  0  0  0  0  0  0
   -2.0531    0.5798    0.0063 H   0  0  0  0  0  0  0  0  0  0  0  0
  1  5  1  0
  5  6  1  0
  5  9  2  0
  1  2  1  0
  1  3  1  0
  1  4  1  0
  6  7  1  0
  6  8  1  0
 10 14  1  0
 14 15  2  0
 15 17  1  0
 17 18  2  0
 18 20  1  0
 20 14  1  0
 10 11  1  0
 10 12  1  0
 10 13  1  0
 15 16  1  0
 18 19  1  0
 20 21  1  0
M  END
>  <PDB_ID>  (134) 
pdb3a12

>  <RESIDUE_NAME>  (134) 
GLN   HID

>  <FRAG_NAME>  (134) 
ACEM   MIMD

>  <FRAG_ATOM_NUM>  (134) 
fragi: 9  fragj: 12

>  <atom.prop.CHAIN_ID>  (134) 
A A A A A A A A A Z Z Z Z Z Z Z Z Z Z Z Z

>  <atom.prop.IS_HEAVY_ATOM>  (134) 
1 0 0 0 1 1 0 0 1 1 0 0 0 1 1 0 1 1 0 1 0

>  <DIFUSE_FUNC_ATOM>  (134) 
n/a

>  <FINAL_SINGLE_POINT_ENERGY>  (134) 
0

>  <NONCOV_INTER_ENERGY_QM>  (134) 
0

>  <FF_Energy>  (134) 
28.21

>  <QM_Energy>  (134) 
65.46

>  <source>  (134) 
ACEM_MIMD

>  <Index>  (134) 
14035

$$$$
ACEM-pdb3a12-E-GLN-312:MIMD-pdb3a12-E-HID-279
     RDKit          3D

 21 20  0  0  0  0  0  0  0  0999 V2000
   -5.1425    1.2114    0.5721 C   0  0  0  0  0  0  0  0  0  0  0  0
   -5.9021    0.5693    0.4386 H   0  0  0  0  0  0  0  0  0  0  0  0
   -5.4906    2.0418    1.0148 H   0  0  0  0  0  0  0  0  0  0  0  0
   -4.4082    0.7485    1.2312 H   0  0  0  0  0  0  0  0  0  0  0  0
   -4.5863    1.5888   -0.7917 C   0  0  0  0  0  0  0  0  0  0  0  0
   -3.3099    1.2647   -1.0144 N   0  0  0  0  0  0  0  0  0  0  0  0
   -2.8730    1.4726   -1.9072 H   0  0  0  0  0  0  0  0  0  0  0  0
   -2.7855    0.8077   -0.2731 H   0  0  0  0  0  0  0  0  0  0  0  0
   -5.2926    2.1601   -1.6425 O   0  0  0  0  0  0  0  0  0  0  0  0
   -0.1860    2.6542   -0.0084 C   0  0  0  0  0  0  0  0  0  0  0  0
   -0.8430    2.9048   -0.7227 H   0  0  0  0  0  0  0  0  0  0  0  0
    0.7003    3.0741   -0.2177 H   0  0  0  0  0  0  0  0  0  0  0  0
   -0.5404    3.0334    0.9501 H   0  0  0  0  0  0  0  0  0  0  0  0
   -0.0186    1.1667   -0.0211 C   0  0  0  0  0  0  0  0  0  0  0  0
    1.0904    0.3905    0.0000 C   0  0  0  0  0  0  0  0  0  0  0  0
    2.0349    0.7052    0.0118 H   0  0  0  0  0  0  0  0  0  0  0  0
    0.6693   -0.9181    0.0046 N   0  0  0  0  0  0  0  0  0  0  0  0
   -0.6507   -0.9422    0.0166 C   0  0  0  0  0  0  0  0  0  0  0  0
   -1.2183   -1.7609    0.0363 H   0  0  0  0  0  0  0  0  0  0  0  0
   -1.0904    0.3031   -0.0000 N   0  0  0  0  0  0  0  0  0  0  0  0
   -2.0521    0.5785    0.0020 H   0  0  0  0  0  0  0  0  0  0  0  0
  1  5  1  0
  5  6  1  0
  5  9  2  0
  1  2  1  0
  1  3  1  0
  1  4  1  0
  6  7  1  0
  6  8  1  0
 10 14  1  0
 14 15  2  0
 15 17  1  0
 17 18  2  0
 18 20  1  0
 20 14  1  0
 10 11  1  0
 10 12  1  0
 10 13  1  0
 15 16  1  0
 18 19  1  0
 20 21  1  0
M  END
>  <PDB_ID>  (135) 
pdb3a12

>  <RESIDUE_NAME>  (135) 
GLN   HID

>  <FRAG_NAME>  (135) 
ACEM   MIMD

>  <FRAG_ATOM_NUM>  (135) 
fragi: 9  fragj: 12

>  <atom.prop.CHAIN_ID>  (135) 
A A A A A A A A A Z Z Z Z Z Z Z Z Z Z Z Z

>  <atom.prop.IS_HEAVY_ATOM>  (135) 
1 0 0 0 1 1 0 0 1 1 0 0 0 1 1 0 1 1 0 1 0

>  <DIFUSE_FUNC_ATOM>  (135) 
n/a

>  <FINAL_SINGLE_POINT_ENERGY>  (135) 
0

>  <NONCOV_INTER_ENERGY_QM>  (135) 
0

>  <FF_Energy>  (135) 
22.55

>  <QM_Energy>  (135) 
52.25

>  <source>  (135) 
ACEM_MIMD

>  <Index>  (135) 
14039

$$$$
ACEM-pdb3a12-I-GLN-312:MIMD-pdb3a12-I-HID-279
     RDKit          3D

 21 20  0  0  0  0  0  0  0  0999 V2000
   -5.2048    1.5112    0.6314 C   0  0  0  0  0  0  0  0  0  0  0  0
   -6.0218    0.9338    0.5525 H   0  0  0  0  0  0  0  0  0  0  0  0
   -5.4568    2.3706    1.0847 H   0  0  0  0  0  0  0  0  0  0  0  0
   -4.4685    0.9941    1.2467 H   0  0  0  0  0  0  0  0  0  0  0  0
   -4.7099    1.8346   -0.7703 C   0  0  0  0  0  0  0  0  0  0  0  0
   -3.5666    1.2780   -1.1221 N   0  0  0  0  0  0  0  0  0  0  0  0
   -3.1734    1.4349   -2.0535 H   0  0  0  0  0  0  0  0  0  0  0  0
   -3.0732    0.6878   -0.4555 H   0  0  0  0  0  0  0  0  0  0  0  0
   -5.3554    2.5685   -1.5349 O   0  0  0  0  0  0  0  0  0  0  0  0
   -0.1828    2.6534    0.0077 C   0  0  0  0  0  0  0  0  0  0  0  0
   -0.8560    2.9080   -0.6915 H   0  0  0  0  0  0  0  0  0  0  0  0
    0.6990    3.0738   -0.2199 H   0  0  0  0  0  0  0  0  0  0  0  0
   -0.5158    3.0304    0.9746 H   0  0  0  0  0  0  0  0  0  0  0  0
   -0.0172    1.1671   -0.0145 C   0  0  0  0  0  0  0  0  0  0  0  0
    1.0910    0.3896   -0.0000 C   0  0  0  0  0  0  0  0  0  0  0  0
    2.0364    0.7045    0.0027 H   0  0  0  0  0  0  0  0  0  0  0  0
    0.6692   -0.9179    0.0113 N   0  0  0  0  0  0  0  0  0  0  0  0
   -0.6520   -0.9425    0.0032 C   0  0  0  0  0  0  0  0  0  0  0  0
   -1.2189   -1.7614    0.0010 H   0  0  0  0  0  0  0  0  0  0  0  0
   -1.0910    0.3037   -0.0000 N   0  0  0  0  0  0  0  0  0  0  0  0
   -2.0527    0.5800    0.0069 H   0  0  0  0  0  0  0  0  0  0  0  0
  1  5  1  0
  5  6  1  0
  5  9  2  0
  1  2  1  0
  1  3  1  0
  1  4  1  0
  6  7  1  0
  6  8  1  0
 10 14  1  0
 14 15  2  0
 15 17  1  0
 17 18  2  0
 18 20  1  0
 20 14  1  0
 10 11  1  0
 10 12  1  0
 10 13  1  0
 15 16  1  0
 18 19  1  0
 20 21  1  0
M  END
>  <PDB_ID>  (136) 
pdb3a12

>  <RESIDUE_NAME>  (136) 
GLN   HID

>  <FRAG_NAME>  (136) 
ACEM   MIMD

>  <FRAG_ATOM_NUM>  (136) 
fragi: 9  fragj: 12

>  <atom.prop.CHAIN_ID>  (136) 
A A A A A A A A A Z Z Z Z Z Z Z Z Z Z Z Z

>  <atom.prop.IS_HEAVY_ATOM>  (136) 
1 0 0 0 1 1 0 0 1 1 0 0 0 1 1 0 1 1 0 1 0

>  <DIFUSE_FUNC_ATOM>  (136) 
n/a

>  <FINAL_SINGLE_POINT_ENERGY>  (136) 
0

>  <NONCOV_INTER_ENERGY_QM>  (136) 
0

>  <FF_Energy>  (136) 
8.65

>  <QM_Energy>  (136) 
18.43

>  <source>  (136) 
ACEM_MIMD

>  <Index>  (136) 
14059

$$$$
ACEM-pdb1w9x-A-GLN-11:MIMD-pdb1w9x-A-HID-332
     RDKit          3D

 21 20  0  0  0  0  0  0  0  0999 V2000
   -5.0501    1.3209    3.2676 C   0  0  0  0  0  0  0  0  0  0  0  0
   -4.6815    2.0911    3.7979 H   0  0  0  0  0  0  0  0  0  0  0  0
   -4.8235    0.4656    3.7434 H   0  0  0  0  0  0  0  0  0  0  0  0
   -6.1357    1.4163    3.2437 H   0  0  0  0  0  0  0  0  0  0  0  0
   -4.4021    1.3109    1.9047 C   0  0  0  0  0  0  0  0  0  0  0  0
   -3.0882    1.2332    1.8853 N   0  0  0  0  0  0  0  0  0  0  0  0
   -2.5727    1.2072    1.0000 H   0  0  0  0  0  0  0  0  0  0  0  0
   -2.5771    1.1990    2.7670 H   0  0  0  0  0  0  0  0  0  0  0  0
   -5.0794    1.3589    0.8772 O   0  0  0  0  0  0  0  0  0  0  0  0
   -0.1703    2.6505   -0.0099 C   0  0  0  0  0  0  0  0  0  0  0  0
    0.7364    3.0682    0.1180 H   0  0  0  0  0  0  0  0  0  0  0  0
   -0.7561    2.9186    0.7632 H   0  0  0  0  0  0  0  0  0  0  0  0
   -0.6086    3.0276   -0.9339 H   0  0  0  0  0  0  0  0  0  0  0  0
   -0.0141    1.1689    0.0102 C   0  0  0  0  0  0  0  0  0  0  0  0
    1.0957    0.3918   -0.0000 C   0  0  0  0  0  0  0  0  0  0  0  0
    2.0393    0.7034   -0.0001 H   0  0  0  0  0  0  0  0  0  0  0  0
    0.6686   -0.9184   -0.0085 N   0  0  0  0  0  0  0  0  0  0  0  0
   -0.6546   -0.9453   -0.0017 C   0  0  0  0  0  0  0  0  0  0  0  0
   -1.2198   -1.7628    0.0027 H   0  0  0  0  0  0  0  0  0  0  0  0
   -1.0957    0.3030   -0.0000 N   0  0  0  0  0  0  0  0  0  0  0  0
   -2.0529    0.5810   -0.0061 H   0  0  0  0  0  0  0  0  0  0  0  0
  1  5  1  0
  5  6  1  0
  5  9  2  0
  1  2  1  0
  1  3  1  0
  1  4  1  0
  6  7  1  0
  6  8  1  0
 10 14  1  0
 14 15  2  0
 15 17  1  0
 17 18  2  0
 18 20  1  0
 20 14  1  0
 10 11  1  0
 10 12  1  0
 10 13  1  0
 15 16  1  0
 18 19  1  0
 20 21  1  0
M  END
>  <PDB_ID>  (137) 
pdb1w9x

>  <RESIDUE_NAME>  (137) 
GLN   HID

>  <FRAG_NAME>  (137) 
ACEM   MIMD

>  <FRAG_ATOM_NUM>  (137) 
fragi: 9  fragj: 12

>  <atom.prop.CHAIN_ID>  (137) 
A A A A A A A A A Z Z Z Z Z Z Z Z Z Z Z Z

>  <atom.prop.IS_HEAVY_ATOM>  (137) 
1 0 0 0 1 1 0 0 1 1 0 0 0 1 1 0 1 1 0 1 0

>  <DIFUSE_FUNC_ATOM>  (137) 
n/a

>  <FINAL_SINGLE_POINT_ENERGY>  (137) 
0

>  <NONCOV_INTER_ENERGY_QM>  (137) 
0

>  <FF_Energy>  (137) 
3.94

>  <QM_Energy>  (137) 
10.33

>  <source>  (137) 
ACEM_MIMD

>  <Index>  (137) 
14145

$$$$
ACEM-pdb3ami-A-GLN-119:MIMD-pdb3ami-A-HID-57
     RDKit          3D

 21 20  0  0  0  0  0  0  0  0999 V2000
   -5.7106    2.2683    1.0337 C   0  0  0  0  0  0  0  0  0  0  0  0
   -5.8304    1.9610    1.9790 H   0  0  0  0  0  0  0  0  0  0  0  0
   -6.6087    2.4112    0.6153 H   0  0  0  0  0  0  0  0  0  0  0  0
   -5.1727    3.2163    1.0398 H   0  0  0  0  0  0  0  0  0  0  0  0
   -4.9842    1.1854    0.2628 C   0  0  0  0  0  0  0  0  0  0  0  0
   -3.6712    1.1118    0.4366 N   0  0  0  0  0  0  0  0  0  0  0  0
   -3.1191    0.4011   -0.0368 H   0  0  0  0  0  0  0  0  0  0  0  0
   -3.2185    1.7826    1.0565 H   0  0  0  0  0  0  0  0  0  0  0  0
   -5.5962    0.4303   -0.4862 O   0  0  0  0  0  0  0  0  0  0  0  0
   -0.1793    2.6495    0.0023 C   0  0  0  0  0  0  0  0  0  0  0  0
    0.5015    3.0425    0.6328 H   0  0  0  0  0  0  0  0  0  0  0  0
   -1.0982    2.8672    0.3545 H   0  0  0  0  0  0  0  0  0  0  0  0
   -0.0594    3.1100   -0.9783 H   0  0  0  0  0  0  0  0  0  0  0  0
   -0.0171    1.1663   -0.0009 C   0  0  0  0  0  0  0  0  0  0  0  0
    1.0916    0.3896   -0.0000 C   0  0  0  0  0  0  0  0  0  0  0  0
    2.0362    0.7042    0.0004 H   0  0  0  0  0  0  0  0  0  0  0  0
    0.6691   -0.9181    0.0012 N   0  0  0  0  0  0  0  0  0  0  0  0
   -0.6521   -0.9412   -0.0003 C   0  0  0  0  0  0  0  0  0  0  0  0
   -1.2188   -1.7607   -0.0007 H   0  0  0  0  0  0  0  0  0  0  0  0
   -1.0916    0.3034    0.0000 N   0  0  0  0  0  0  0  0  0  0  0  0
   -2.0528    0.5802   -0.0004 H   0  0  0  0  0  0  0  0  0  0  0  0
  1  5  1  0
  5  6  1  0
  5  9  2  0
  1  2  1  0
  1  3  1  0
  1  4  1  0
  6  7  1  0
  6  8  1  0
 10 14  1  0
 14 15  2  0
 15 17  1  0
 17 18  2  0
 18 20  1  0
 20 14  1  0
 10 11  1  0
 10 12  1  0
 10 13  1  0
 15 16  1  0
 18 19  1  0
 20 21  1  0
M  END
>  <PDB_ID>  (138) 
pdb3ami

>  <RESIDUE_NAME>  (138) 
GLN   HID

>  <FRAG_NAME>  (138) 
ACEM   MIMD

>  <FRAG_ATOM_NUM>  (138) 
fragi: 9  fragj: 12

>  <atom.prop.CHAIN_ID>  (138) 
A A A A A A A A A Z Z Z Z Z Z Z Z Z Z Z Z

>  <atom.prop.IS_HEAVY_ATOM>  (138) 
1 0 0 0 1 1 0 0 1 1 0 0 0 1 1 0 1 1 0 1 0

>  <DIFUSE_FUNC_ATOM>  (138) 
n/a

>  <FINAL_SINGLE_POINT_ENERGY>  (138) 
0

>  <NONCOV_INTER_ENERGY_QM>  (138) 
0

>  <FF_Energy>  (138) 
11.79

>  <QM_Energy>  (138) 
24.27

>  <source>  (138) 
ACEM_MIMD

>  <Index>  (138) 
14376

$$$$
ACEM-pdb1wp6-A-GLN-11:MIMD-pdb1wp6-A-HID-332
     RDKit          3D

 21 20  0  0  0  0  0  0  0  0999 V2000
   -5.4881    0.5239    2.6330 C   0  0  0  0  0  0  0  0  0  0  0  0
   -5.2568    1.2096    3.3275 H   0  0  0  0  0  0  0  0  0  0  0  0
   -5.2290   -0.3845    2.9700 H   0  0  0  0  0  0  0  0  0  0  0  0
   -6.5664    0.5406    2.4750 H   0  0  0  0  0  0  0  0  0  0  0  0
   -4.6928    0.8202    1.3777 C   0  0  0  0  0  0  0  0  0  0  0  0
   -3.3887    1.0096    1.5393 N   0  0  0  0  0  0  0  0  0  0  0  0
   -2.7851    1.1996    0.7402 H   0  0  0  0  0  0  0  0  0  0  0  0
   -2.9964    0.9627    2.4783 H   0  0  0  0  0  0  0  0  0  0  0  0
   -5.2373    0.8681    0.2763 O   0  0  0  0  0  0  0  0  0  0  0  0
   -0.1756    2.6513   -0.0541 C   0  0  0  0  0  0  0  0  0  0  0  0
    0.7229    3.0725    0.1110 H   0  0  0  0  0  0  0  0  0  0  0  0
   -0.7989    2.9280    0.6856 H   0  0  0  0  0  0  0  0  0  0  0  0
   -0.5689    3.0176   -1.0024 H   0  0  0  0  0  0  0  0  0  0  0  0
   -0.0161    1.1663   -0.0042 C   0  0  0  0  0  0  0  0  0  0  0  0
    1.0911    0.3886    0.0000 C   0  0  0  0  0  0  0  0  0  0  0  0
    2.0359    0.7027    0.0014 H   0  0  0  0  0  0  0  0  0  0  0  0
    0.6680   -0.9176    0.0027 N   0  0  0  0  0  0  0  0  0  0  0  0
   -0.6519   -0.9410    0.0015 C   0  0  0  0  0  0  0  0  0  0  0  0
   -1.2197   -1.7603    0.0035 H   0  0  0  0  0  0  0  0  0  0  0  0
   -1.0911    0.3037    0.0000 N   0  0  0  0  0  0  0  0  0  0  0  0
   -2.0517    0.5807    0.0011 H   0  0  0  0  0  0  0  0  0  0  0  0
  1  5  1  0
  5  6  1  0
  5  9  2  0
  1  2  1  0
  1  3  1  0
  1  4  1  0
  6  7  1  0
  6  8  1  0
 10 14  1  0
 14 15  2  0
 15 17  1  0
 17 18  2  0
 18 20  1  0
 20 14  1  0
 10 11  1  0
 10 12  1  0
 10 13  1  0
 15 16  1  0
 18 19  1  0
 20 21  1  0
M  END
>  <PDB_ID>  (139) 
pdb1wp6

>  <RESIDUE_NAME>  (139) 
GLN   HID

>  <FRAG_NAME>  (139) 
ACEM   MIMD

>  <FRAG_ATOM_NUM>  (139) 
fragi: 9  fragj: 12

>  <atom.prop.CHAIN_ID>  (139) 
A A A A A A A A A Z Z Z Z Z Z Z Z Z Z Z Z

>  <atom.prop.IS_HEAVY_ATOM>  (139) 
1 0 0 0 1 1 0 0 1 1 0 0 0 1 1 0 1 1 0 1 0

>  <DIFUSE_FUNC_ATOM>  (139) 
n/a

>  <FINAL_SINGLE_POINT_ENERGY>  (139) 
0

>  <NONCOV_INTER_ENERGY_QM>  (139) 
0

>  <FF_Energy>  (139) 
5.87

>  <QM_Energy>  (139) 
14.1

>  <source>  (139) 
ACEM_MIMD

>  <Index>  (139) 
14402

$$$$
ACEM-pdb1wza-A-GLN-216:MIMD-pdb1wza-A-HID-112
     RDKit          3D

 21 20  0  0  0  0  0  0  0  0999 V2000
   -1.2743   -4.4466    2.1978 C   0  0  0  0  0  0  0  0  0  0  0  0
   -1.0733   -5.2660    2.7385 H   0  0  0  0  0  0  0  0  0  0  0  0
   -2.2675   -4.3327    2.1297 H   0  0  0  0  0  0  0  0  0  0  0  0
   -0.8606   -3.5804    2.7142 H   0  0  0  0  0  0  0  0  0  0  0  0
   -0.7126   -4.6433    0.7965 C   0  0  0  0  0  0  0  0  0  0  0  0
   -0.3942   -3.5511    0.1221 N   0  0  0  0  0  0  0  0  0  0  0  0
   -0.0013   -3.6059   -0.8124 H   0  0  0  0  0  0  0  0  0  0  0  0
   -0.5506   -2.6400    0.5574 H   0  0  0  0  0  0  0  0  0  0  0  0
   -0.5791   -5.7714    0.3263 O   0  0  0  0  0  0  0  0  0  0  0  0
   -0.1796    2.6462    0.0615 C   0  0  0  0  0  0  0  0  0  0  0  0
   -0.8172    2.9246   -0.6641 H   0  0  0  0  0  0  0  0  0  0  0  0
    0.7144    3.0707   -0.1180 H   0  0  0  0  0  0  0  0  0  0  0  0
   -0.5552    3.0025    1.0208 H   0  0  0  0  0  0  0  0  0  0  0  0
   -0.0175    1.1654    0.0040 C   0  0  0  0  0  0  0  0  0  0  0  0
    1.0917    0.3897   -0.0000 C   0  0  0  0  0  0  0  0  0  0  0  0
    2.0361    0.7044    0.0000 H   0  0  0  0  0  0  0  0  0  0  0  0
    0.6688   -0.9173   -0.0020 N   0  0  0  0  0  0  0  0  0  0  0  0
   -0.6513   -0.9408   -0.0020 C   0  0  0  0  0  0  0  0  0  0  0  0
   -1.2179   -1.7610   -0.0023 H   0  0  0  0  0  0  0  0  0  0  0  0
   -1.0917    0.3031    0.0000 N   0  0  0  0  0  0  0  0  0  0  0  0
   -2.0526    0.5792   -0.0018 H   0  0  0  0  0  0  0  0  0  0  0  0
  1  5  1  0
  5  6  1  0
  5  9  2  0
  1  2  1  0
  1  3  1  0
  1  4  1  0
  6  7  1  0
  6  8  1  0
 10 14  1  0
 14 15  2  0
 15 17  1  0
 17 18  2  0
 18 20  1  0
 20 14  1  0
 10 11  1  0
 10 12  1  0
 10 13  1  0
 15 16  1  0
 18 19  1  0
 20 21  1  0
M  END
>  <PDB_ID>  (140) 
pdb1wza

>  <RESIDUE_NAME>  (140) 
GLN   HID

>  <FRAG_NAME>  (140) 
ACEM   MIMD

>  <FRAG_ATOM_NUM>  (140) 
fragi: 9  fragj: 12

>  <atom.prop.CHAIN_ID>  (140) 
A A A A A A A A A Z Z Z Z Z Z Z Z Z Z Z Z

>  <atom.prop.IS_HEAVY_ATOM>  (140) 
1 0 0 0 1 1 0 0 1 1 0 0 0 1 1 0 1 1 0 1 0

>  <DIFUSE_FUNC_ATOM>  (140) 
n/a

>  <FINAL_SINGLE_POINT_ENERGY>  (140) 
0

>  <NONCOV_INTER_ENERGY_QM>  (140) 
0

>  <FF_Energy>  (140) 
8.44

>  <QM_Energy>  (140) 
17.71

>  <source>  (140) 
ACEM_MIMD

>  <Index>  (140) 
14695

$$$$
ACEM-pdb3bc9-A-GLN-127:MIMD-pdb3bc9-A-HID-446
     RDKit          3D

 21 20  0  0  0  0  0  0  0  0999 V2000
   -5.4586    1.3486    2.7815 C   0  0  0  0  0  0  0  0  0  0  0  0
   -5.0849    2.1111    3.3823 H   0  0  0  0  0  0  0  0  0  0  0  0
   -5.2632    0.4881    3.3327 H   0  0  0  0  0  0  0  0  0  0  0  0
   -6.5406    1.4691    2.7268 H   0  0  0  0  0  0  0  0  0  0  0  0
   -4.6281    1.2962    1.5375 C   0  0  0  0  0  0  0  0  0  0  0  0
   -3.3571    1.1713    1.6810 N   0  0  0  0  0  0  0  0  0  0  0  0
   -2.7119    1.1130    0.8752 H   0  0  0  0  0  0  0  0  0  0  0  0
   -2.9492    1.1272    2.6268 H   0  0  0  0  0  0  0  0  0  0  0  0
   -5.2106    1.2736    0.4027 O   0  0  0  0  0  0  0  0  0  0  0  0
   -0.1790    2.6148   -0.0856 C   0  0  0  0  0  0  0  0  0  0  0  0
    0.7015    3.0613    0.1027 H   0  0  0  0  0  0  0  0  0  0  0  0
   -0.8497    2.9250    0.5953 H   0  0  0  0  0  0  0  0  0  0  0  0
   -0.5210    2.9166   -1.0756 H   0  0  0  0  0  0  0  0  0  0  0  0
   -0.0164    1.1650    0.0270 C   0  0  0  0  0  0  0  0  0  0  0  0
    1.1028    0.3772    0.0000 C   0  0  0  0  0  0  0  0  0  0  0  0
    2.0424    0.6933    0.0078 H   0  0  0  0  0  0  0  0  0  0  0  0
    0.6729   -0.9276   -0.0385 N   0  0  0  0  0  0  0  0  0  0  0  0
   -0.6565   -0.9366    0.0115 C   0  0  0  0  0  0  0  0  0  0  0  0
   -1.2281   -1.7511    0.0523 H   0  0  0  0  0  0  0  0  0  0  0  0
   -1.1028    0.3219   -0.0000 N   0  0  0  0  0  0  0  0  0  0  0  0
   -2.0554    0.5954   -0.0248 H   0  0  0  0  0  0  0  0  0  0  0  0
  1  5  1  0
  5  6  1  0
  5  9  2  0
  1  2  1  0
  1  3  1  0
  1  4  1  0
  6  7  1  0
  6  8  1  0
 10 14  1  0
 14 15  2  0
 15 17  1  0
 17 18  2  0
 18 20  1  0
 20 14  1  0
 10 11  1  0
 10 12  1  0
 10 13  1  0
 15 16  1  0
 18 19  1  0
 20 21  1  0
M  END
>  <PDB_ID>  (141) 
pdb3bc9

>  <RESIDUE_NAME>  (141) 
GLN   HID

>  <FRAG_NAME>  (141) 
ACEM   MIMD

>  <FRAG_ATOM_NUM>  (141) 
fragi: 9  fragj: 12

>  <atom.prop.CHAIN_ID>  (141) 
A A A A A A A A A Z Z Z Z Z Z Z Z Z Z Z Z

>  <atom.prop.IS_HEAVY_ATOM>  (141) 
1 0 0 0 1 1 0 0 1 1 0 0 0 1 1 0 1 1 0 1 0

>  <DIFUSE_FUNC_ATOM>  (141) 
n/a

>  <FINAL_SINGLE_POINT_ENERGY>  (141) 
0

>  <NONCOV_INTER_ENERGY_QM>  (141) 
0

>  <FF_Energy>  (141) 
4.78

>  <QM_Energy>  (141) 
12.26

>  <source>  (141) 
ACEM_MIMD

>  <Index>  (141) 
14920

$$$$
ACEM-pdb3bqz-A-ASN-38:MIMD-pdb3bqz-A-HID-42
     RDKit          3D

 21 20  0  0  0  0  0  0  0  0999 V2000
   -5.5916   -1.1192    0.0906 C   0  0  0  0  0  0  0  0  0  0  0  0
   -5.9290   -1.9634    0.4988 H   0  0  0  0  0  0  0  0  0  0  0  0
   -6.1709   -0.8547   -0.6757 H   0  0  0  0  0  0  0  0  0  0  0  0
   -5.6354   -0.3318    0.8431 H   0  0  0  0  0  0  0  0  0  0  0  0
   -4.1895   -1.3538   -0.4192 C   0  0  0  0  0  0  0  0  0  0  0  0
   -3.3360   -1.8771    0.4382 N   0  0  0  0  0  0  0  0  0  0  0  0
   -3.6263   -2.1047    1.3707 H   0  0  0  0  0  0  0  0  0  0  0  0
   -2.3867   -2.0525    0.1631 H   0  0  0  0  0  0  0  0  0  0  0  0
   -3.8696   -1.0421   -1.5629 O   0  0  0  0  0  0  0  0  0  0  0  0
   -0.1736    2.6567   -0.0253 C   0  0  0  0  0  0  0  0  0  0  0  0
   -1.0369    2.8868   -0.4951 H   0  0  0  0  0  0  0  0  0  0  0  0
    0.5854    3.0579   -0.5571 H   0  0  0  0  0  0  0  0  0  0  0  0
   -0.1829    3.1081    0.9668 H   0  0  0  0  0  0  0  0  0  0  0  0
   -0.0165    1.1674   -0.0349 C   0  0  0  0  0  0  0  0  0  0  0  0
    1.0924    0.3877   -0.0000 C   0  0  0  0  0  0  0  0  0  0  0  0
    2.0366    0.7028    0.0140 H   0  0  0  0  0  0  0  0  0  0  0  0
    0.6689   -0.9191    0.0147 N   0  0  0  0  0  0  0  0  0  0  0  0
   -0.6524   -0.9414    0.0203 C   0  0  0  0  0  0  0  0  0  0  0  0
   -1.2205   -1.7591    0.0401 H   0  0  0  0  0  0  0  0  0  0  0  0
   -1.0924    0.3054    0.0000 N   0  0  0  0  0  0  0  0  0  0  0  0
   -2.0518    0.5822    0.0074 H   0  0  0  0  0  0  0  0  0  0  0  0
  1  5  1  0
  5  6  1  0
  5  9  2  0
  1  2  1  0
  1  3  1  0
  1  4  1  0
  6  7  1  0
  6  8  1  0
 10 14  1  0
 14 15  2  0
 15 17  1  0
 17 18  2  0
 18 20  1  0
 20 14  1  0
 10 11  1  0
 10 12  1  0
 10 13  1  0
 15 16  1  0
 18 19  1  0
 20 21  1  0
M  END
>  <PDB_ID>  (142) 
pdb3bqz

>  <RESIDUE_NAME>  (142) 
ASN   HID

>  <FRAG_NAME>  (142) 
ACEM   MIMD

>  <FRAG_ATOM_NUM>  (142) 
fragi: 9  fragj: 12

>  <atom.prop.CHAIN_ID>  (142) 
A A A A A A A A A Z Z Z Z Z Z Z Z Z Z Z Z

>  <atom.prop.IS_HEAVY_ATOM>  (142) 
1 0 0 0 1 1 0 0 1 1 0 0 0 1 1 0 1 1 0 1 0

>  <DIFUSE_FUNC_ATOM>  (142) 
n/a

>  <FINAL_SINGLE_POINT_ENERGY>  (142) 
0

>  <NONCOV_INTER_ENERGY_QM>  (142) 
0

>  <FF_Energy>  (142) 
2.74

>  <QM_Energy>  (142) 
11.85

>  <source>  (142) 
ACEM_MIMD

>  <Index>  (142) 
15286

$$$$
ACEM-pdb1xzw-B-ASN-651:MIMD-pdb1xzw-B-HID-888
     RDKit          3D

 21 20  0  0  0  0  0  0  0  0999 V2000
   -0.7033   -4.6822   -1.4485 C   0  0  0  0  0  0  0  0  0  0  0  0
   -0.0670   -3.9170   -1.3809 H   0  0  0  0  0  0  0  0  0  0  0  0
   -1.3869   -4.4941   -2.1511 H   0  0  0  0  0  0  0  0  0  0  0  0
   -0.1430   -5.5688   -1.7451 H   0  0  0  0  0  0  0  0  0  0  0  0
   -1.4023   -4.8520   -0.1226 C   0  0  0  0  0  0  0  0  0  0  0  0
   -1.6477   -3.7508    0.5696 N   0  0  0  0  0  0  0  0  0  0  0  0
   -1.3740   -2.8591    0.1993 H   0  0  0  0  0  0  0  0  0  0  0  0
   -2.1031   -3.8025    1.4575 H   0  0  0  0  0  0  0  0  0  0  0  0
   -1.7126   -5.9745    0.2799 O   0  0  0  0  0  0  0  0  0  0  0  0
   -0.1826    2.6507    0.0068 C   0  0  0  0  0  0  0  0  0  0  0  0
   -1.0267    2.8799   -0.4940 H   0  0  0  0  0  0  0  0  0  0  0  0
    0.5954    3.0596   -0.4858 H   0  0  0  0  0  0  0  0  0  0  0  0
   -0.2352    3.0875    1.0041 H   0  0  0  0  0  0  0  0  0  0  0  0
   -0.0179    1.1664   -0.0008 C   0  0  0  0  0  0  0  0  0  0  0  0
    1.0898    0.3917    0.0000 C   0  0  0  0  0  0  0  0  0  0  0  0
    2.0346    0.7074    0.0015 H   0  0  0  0  0  0  0  0  0  0  0  0
    0.6689   -0.9153    0.0002 N   0  0  0  0  0  0  0  0  0  0  0  0
   -0.6510   -0.9441    0.0006 C   0  0  0  0  0  0  0  0  0  0  0  0
   -1.2158   -1.7625    0.0020 H   0  0  0  0  0  0  0  0  0  0  0  0
   -1.0898    0.3013   -0.0000 N   0  0  0  0  0  0  0  0  0  0  0  0
   -2.0528    0.5773   -0.0007 H   0  0  0  0  0  0  0  0  0  0  0  0
  1  5  1  0
  5  6  1  0
  5  9  2  0
  1  2  1  0
  1  3  1  0
  1  4  1  0
  6  7  1  0
  6  8  1  0
 10 14  1  0
 14 15  2  0
 15 17  1  0
 17 18  2  0
 18 20  1  0
 20 14  1  0
 10 11  1  0
 10 12  1  0
 10 13  1  0
 15 16  1  0
 18 19  1  0
 20 21  1  0
M  END
>  <PDB_ID>  (143) 
pdb1xzw

>  <RESIDUE_NAME>  (143) 
ASN   HID

>  <FRAG_NAME>  (143) 
ACEM   MIMD

>  <FRAG_ATOM_NUM>  (143) 
fragi: 9  fragj: 12

>  <atom.prop.CHAIN_ID>  (143) 
A A A A A A A A A Z Z Z Z Z Z Z Z Z Z Z Z

>  <atom.prop.IS_HEAVY_ATOM>  (143) 
1 0 0 0 1 1 0 0 1 1 0 0 0 1 1 0 1 1 0 1 0

>  <DIFUSE_FUNC_ATOM>  (143) 
n/a

>  <FINAL_SINGLE_POINT_ENERGY>  (143) 
0

>  <NONCOV_INTER_ENERGY_QM>  (143) 
0

>  <FF_Energy>  (143) 
3.78

>  <QM_Energy>  (143) 
15.15

>  <source>  (143) 
ACEM_MIMD

>  <Index>  (143) 
15359

$$$$
ACEM-pdb3c0y-B-ASN-712:MIMD-pdb3c0y-B-HID-670
     RDKit          3D

 21 20  0  0  0  0  0  0  0  0999 V2000
   -5.8894    1.7696   -0.0474 C   0  0  0  0  0  0  0  0  0  0  0  0
   -6.6106    2.3680    0.2862 H   0  0  0  0  0  0  0  0  0  0  0  0
   -5.9565    0.8738    0.3818 H   0  0  0  0  0  0  0  0  0  0  0  0
   -6.0032    1.6501   -1.1248 H   0  0  0  0  0  0  0  0  0  0  0  0
   -4.5334    2.3897    0.3542 C   0  0  0  0  0  0  0  0  0  0  0  0
   -3.4676    1.6468    0.1829 N   0  0  0  0  0  0  0  0  0  0  0  0
   -3.5569    0.7195   -0.2013 H   0  0  0  0  0  0  0  0  0  0  0  0
   -2.5586    1.9890    0.4285 H   0  0  0  0  0  0  0  0  0  0  0  0
   -4.4685    3.5274    0.8293 O   0  0  0  0  0  0  0  0  0  0  0  0
   -0.1762    2.6550    0.0019 C   0  0  0  0  0  0  0  0  0  0  0  0
    0.7424    3.0770   -0.0315 H   0  0  0  0  0  0  0  0  0  0  0  0
   -0.6037    2.9223    0.8797 H   0  0  0  0  0  0  0  0  0  0  0  0
   -0.7731    3.0750   -0.8077 H   0  0  0  0  0  0  0  0  0  0  0  0
   -0.0192    1.1701   -0.0182 C   0  0  0  0  0  0  0  0  0  0  0  0
    1.0926    0.3887   -0.0000 C   0  0  0  0  0  0  0  0  0  0  0  0
    2.0362    0.7043    0.0024 H   0  0  0  0  0  0  0  0  0  0  0  0
    0.6701   -0.9196    0.0153 N   0  0  0  0  0  0  0  0  0  0  0  0
   -0.6509   -0.9449    0.0029 C   0  0  0  0  0  0  0  0  0  0  0  0
   -1.2186   -1.7620   -0.0019 H   0  0  0  0  0  0  0  0  0  0  0  0
   -1.0926    0.3057    0.0000 N   0  0  0  0  0  0  0  0  0  0  0  0
   -2.0542    0.5783    0.0093 H   0  0  0  0  0  0  0  0  0  0  0  0
  1  5  1  0
  5  6  1  0
  5  9  2  0
  1  2  1  0
  1  3  1  0
  1  4  1  0
  6  7  1  0
  6  8  1  0
 10 14  1  0
 14 15  2  0
 15 17  1  0
 17 18  2  0
 18 20  1  0
 20 14  1  0
 10 11  1  0
 10 12  1  0
 10 13  1  0
 15 16  1  0
 18 19  1  0
 20 21  1  0
M  END
>  <PDB_ID>  (144) 
pdb3c0y

>  <RESIDUE_NAME>  (144) 
ASN   HID

>  <FRAG_NAME>  (144) 
ACEM   MIMD

>  <FRAG_ATOM_NUM>  (144) 
fragi: 9  fragj: 12

>  <atom.prop.CHAIN_ID>  (144) 
A A A A A A A A A Z Z Z Z Z Z Z Z Z Z Z Z

>  <atom.prop.IS_HEAVY_ATOM>  (144) 
1 0 0 0 1 1 0 0 1 1 0 0 0 1 1 0 1 1 0 1 0

>  <DIFUSE_FUNC_ATOM>  (144) 
n/a

>  <FINAL_SINGLE_POINT_ENERGY>  (144) 
0

>  <NONCOV_INTER_ENERGY_QM>  (144) 
0

>  <FF_Energy>  (144) 
7.82

>  <QM_Energy>  (144) 
13.37

>  <source>  (144) 
ACEM_MIMD

>  <Index>  (144) 
15553

$$$$
ACEM-pdb1yif-B-GLN-292:MIMD-pdb1yif-B-HID-263
     RDKit          3D

 21 20  0  0  0  0  0  0  0  0999 V2000
   -2.9330   -2.3236    1.6072 C   0  0  0  0  0  0  0  0  0  0  0  0
   -2.6951   -1.6870    0.8730 H   0  0  0  0  0  0  0  0  0  0  0  0
   -2.4460   -2.0635    2.4423 H   0  0  0  0  0  0  0  0  0  0  0  0
   -4.0049   -2.2560    1.7933 H   0  0  0  0  0  0  0  0  0  0  0  0
   -2.4931   -3.7145    1.2020 C   0  0  0  0  0  0  0  0  0  0  0  0
   -1.4324   -3.7898    0.4061 N   0  0  0  0  0  0  0  0  0  0  0  0
   -1.0689   -4.6904    0.1028 H   0  0  0  0  0  0  0  0  0  0  0  0
   -0.9845   -2.9272    0.1006 H   0  0  0  0  0  0  0  0  0  0  0  0
   -3.0779   -4.7091    1.6266 O   0  0  0  0  0  0  0  0  0  0  0  0
   -0.1808    2.6562    0.0048 C   0  0  0  0  0  0  0  0  0  0  0  0
    0.6431    3.0639    0.4132 H   0  0  0  0  0  0  0  0  0  0  0  0
   -0.9705    2.8863    0.5832 H   0  0  0  0  0  0  0  0  0  0  0  0
   -0.3332    3.0862   -0.9852 H   0  0  0  0  0  0  0  0  0  0  0  0
   -0.0183    1.1673   -0.0006 C   0  0  0  0  0  0  0  0  0  0  0  0
    1.0912    0.3908    0.0000 C   0  0  0  0  0  0  0  0  0  0  0  0
    2.0351    0.7065   -0.0004 H   0  0  0  0  0  0  0  0  0  0  0  0
    0.6695   -0.9169    0.0008 N   0  0  0  0  0  0  0  0  0  0  0  0
   -0.6511   -0.9433   -0.0001 C   0  0  0  0  0  0  0  0  0  0  0  0
   -1.2167   -1.7630    0.0006 H   0  0  0  0  0  0  0  0  0  0  0  0
   -1.0912    0.3021   -0.0000 N   0  0  0  0  0  0  0  0  0  0  0  0
   -2.0528    0.5776   -0.0006 H   0  0  0  0  0  0  0  0  0  0  0  0
  1  5  1  0
  5  6  1  0
  5  9  2  0
  1  2  1  0
  1  3  1  0
  1  4  1  0
  6  7  1  0
  6  8  1  0
 10 14  1  0
 14 15  2  0
 15 17  1  0
 17 18  2  0
 18 20  1  0
 20 14  1  0
 10 11  1  0
 10 12  1  0
 10 13  1  0
 15 16  1  0
 18 19  1  0
 20 21  1  0
M  END
>  <PDB_ID>  (145) 
pdb1yif

>  <RESIDUE_NAME>  (145) 
GLN   HID

>  <FRAG_NAME>  (145) 
ACEM   MIMD

>  <FRAG_ATOM_NUM>  (145) 
fragi: 9  fragj: 12

>  <atom.prop.CHAIN_ID>  (145) 
A A A A A A A A A Z Z Z Z Z Z Z Z Z Z Z Z

>  <atom.prop.IS_HEAVY_ATOM>  (145) 
1 0 0 0 1 1 0 0 1 1 0 0 0 1 1 0 1 1 0 1 0

>  <DIFUSE_FUNC_ATOM>  (145) 
n/a

>  <FINAL_SINGLE_POINT_ENERGY>  (145) 
0

>  <NONCOV_INTER_ENERGY_QM>  (145) 
0

>  <FF_Energy>  (145) 
4.68

>  <QM_Energy>  (145) 
15.8

>  <source>  (145) 
ACEM_MIMD

>  <Index>  (145) 
15798

$$$$
ACEM-pdb1yif-C-GLN-292:MIMD-pdb1yif-C-HID-263
     RDKit          3D

 21 20  0  0  0  0  0  0  0  0999 V2000
   -2.9560   -2.3392    1.5183 C   0  0  0  0  0  0  0  0  0  0  0  0
   -2.6880   -1.6981    0.7978 H   0  0  0  0  0  0  0  0  0  0  0  0
   -2.4979   -2.0894    2.3725 H   0  0  0  0  0  0  0  0  0  0  0  0
   -4.0338   -2.2703    1.6655 H   0  0  0  0  0  0  0  0  0  0  0  0
   -2.5069   -3.7296    1.1180 C   0  0  0  0  0  0  0  0  0  0  0  0
   -1.4498   -3.8001    0.3153 N   0  0  0  0  0  0  0  0  0  0  0  0
   -1.0818   -4.6996    0.0148 H   0  0  0  0  0  0  0  0  0  0  0  0
   -1.0117   -2.9360    0.0024 H   0  0  0  0  0  0  0  0  0  0  0  0
   -3.0844   -4.7260    1.5484 O   0  0  0  0  0  0  0  0  0  0  0  0
   -0.1820    2.6578    0.0085 C   0  0  0  0  0  0  0  0  0  0  0  0
    0.6292    3.0627    0.4448 H   0  0  0  0  0  0  0  0  0  0  0  0
   -0.9891    2.8849    0.5644 H   0  0  0  0  0  0  0  0  0  0  0  0
   -0.3042    3.0949   -0.9826 H   0  0  0  0  0  0  0  0  0  0  0  0
   -0.0190    1.1673    0.0012 C   0  0  0  0  0  0  0  0  0  0  0  0
    1.0913    0.3907   -0.0000 C   0  0  0  0  0  0  0  0  0  0  0  0
    2.0348    0.7063    0.0008 H   0  0  0  0  0  0  0  0  0  0  0  0
    0.6690   -0.9174   -0.0007 N   0  0  0  0  0  0  0  0  0  0  0  0
   -0.6500   -0.9427   -0.0005 C   0  0  0  0  0  0  0  0  0  0  0  0
   -1.2167   -1.7622    0.0010 H   0  0  0  0  0  0  0  0  0  0  0  0
   -1.0913    0.3021   -0.0000 N   0  0  0  0  0  0  0  0  0  0  0  0
   -2.0532    0.5768   -0.0018 H   0  0  0  0  0  0  0  0  0  0  0  0
  1  5  1  0
  5  6  1  0
  5  9  2  0
  1  2  1  0
  1  3  1  0
  1  4  1  0
  6  7  1  0
  6  8  1  0
 10 14  1  0
 14 15  2  0
 15 17  1  0
 17 18  2  0
 18 20  1  0
 20 14  1  0
 10 11  1  0
 10 12  1  0
 10 13  1  0
 15 16  1  0
 18 19  1  0
 20 21  1  0
M  END
>  <PDB_ID>  (146) 
pdb1yif

>  <RESIDUE_NAME>  (146) 
GLN   HID

>  <FRAG_NAME>  (146) 
ACEM   MIMD

>  <FRAG_ATOM_NUM>  (146) 
fragi: 9  fragj: 12

>  <atom.prop.CHAIN_ID>  (146) 
A A A A A A A A A Z Z Z Z Z Z Z Z Z Z Z Z

>  <atom.prop.IS_HEAVY_ATOM>  (146) 
1 0 0 0 1 1 0 0 1 1 0 0 0 1 1 0 1 1 0 1 0

>  <DIFUSE_FUNC_ATOM>  (146) 
n/a

>  <FINAL_SINGLE_POINT_ENERGY>  (146) 
0

>  <NONCOV_INTER_ENERGY_QM>  (146) 
0

>  <FF_Energy>  (146) 
5.41

>  <QM_Energy>  (146) 
16.42

>  <source>  (146) 
ACEM_MIMD

>  <Index>  (146) 
15800

$$$$
ACEM-pdb1yla-B-ASN-25:MIMD-pdb1yla-A-HID-150
     RDKit          3D

 21 20  0  0  0  0  0  0  0  0999 V2000
   -4.7352   -3.0430    2.4920 C   0  0  0  0  0  0  0  0  0  0  0  0
   -5.4812   -3.4872    1.9994 H   0  0  0  0  0  0  0  0  0  0  0  0
   -5.0841   -2.6216    3.3262 H   0  0  0  0  0  0  0  0  0  0  0  0
   -4.0079   -3.8050    2.7722 H   0  0  0  0  0  0  0  0  0  0  0  0
   -4.1410   -1.9786    1.6197 C   0  0  0  0  0  0  0  0  0  0  0  0
   -2.8430   -2.0768    1.3643 N   0  0  0  0  0  0  0  0  0  0  0  0
   -2.3140   -2.8382    1.7440 H   0  0  0  0  0  0  0  0  0  0  0  0
   -2.3894   -1.3932    0.7927 H   0  0  0  0  0  0  0  0  0  0  0  0
   -4.8362   -1.0721    1.1767 O   0  0  0  0  0  0  0  0  0  0  0  0
   -0.1751    2.6559   -0.0968 C   0  0  0  0  0  0  0  0  0  0  0  0
   -0.9006    2.8574   -0.7621 H   0  0  0  0  0  0  0  0  0  0  0  0
    0.6874    3.0467   -0.4303 H   0  0  0  0  0  0  0  0  0  0  0  0
   -0.4291    3.1237    0.8544 H   0  0  0  0  0  0  0  0  0  0  0  0
   -0.0159    1.1693   -0.0063 C   0  0  0  0  0  0  0  0  0  0  0  0
    1.0905    0.3888    0.0000 C   0  0  0  0  0  0  0  0  0  0  0  0
    2.0368    0.7021    0.0042 H   0  0  0  0  0  0  0  0  0  0  0  0
    0.6684   -0.9197    0.0031 N   0  0  0  0  0  0  0  0  0  0  0  0
   -0.6524   -0.9426    0.0033 C   0  0  0  0  0  0  0  0  0  0  0  0
   -1.2200   -1.7609    0.0062 H   0  0  0  0  0  0  0  0  0  0  0  0
   -1.0905    0.3042    0.0000 N   0  0  0  0  0  0  0  0  0  0  0  0
   -2.0518    0.5810    0.0010 H   0  0  0  0  0  0  0  0  0  0  0  0
  1  5  1  0
  5  6  1  0
  5  9  2  0
  1  2  1  0
  1  3  1  0
  1  4  1  0
  6  7  1  0
  6  8  1  0
 10 14  1  0
 14 15  2  0
 15 17  1  0
 17 18  2  0
 18 20  1  0
 20 14  1  0
 10 11  1  0
 10 12  1  0
 10 13  1  0
 15 16  1  0
 18 19  1  0
 20 21  1  0
M  END
>  <PDB_ID>  (147) 
pdb1yla

>  <RESIDUE_NAME>  (147) 
ASN   HID

>  <FRAG_NAME>  (147) 
ACEM   MIMD

>  <FRAG_ATOM_NUM>  (147) 
fragi: 9  fragj: 12

>  <atom.prop.CHAIN_ID>  (147) 
A A A A A A A A A Z Z Z Z Z Z Z Z Z Z Z Z

>  <atom.prop.IS_HEAVY_ATOM>  (147) 
1 0 0 0 1 1 0 0 1 1 0 0 0 1 1 0 1 1 0 1 0

>  <DIFUSE_FUNC_ATOM>  (147) 
n/a

>  <FINAL_SINGLE_POINT_ENERGY>  (147) 
0

>  <NONCOV_INTER_ENERGY_QM>  (147) 
0

>  <FF_Energy>  (147) 
1.74

>  <QM_Energy>  (147) 
8.59

>  <source>  (147) 
ACEM_MIMD

>  <Index>  (147) 
15898

$$$$
ACEM-pdb3cki-A-ASN-447:MIMD-pdb3cki-A-HID-444
     RDKit          3D

 21 20  0  0  0  0  0  0  0  0999 V2000
   -4.6200    3.7814   -1.8013 C   0  0  0  0  0  0  0  0  0  0  0  0
   -4.5902    4.2232   -0.9090 H   0  0  0  0  0  0  0  0  0  0  0  0
   -5.5199    3.3804   -1.9550 H   0  0  0  0  0  0  0  0  0  0  0  0
   -4.4458    4.5380   -2.5664 H   0  0  0  0  0  0  0  0  0  0  0  0
   -3.5867    2.6773   -1.8298 C   0  0  0  0  0  0  0  0  0  0  0  0
   -3.5648    1.8533   -0.7868 N   0  0  0  0  0  0  0  0  0  0  0  0
   -4.2193    1.9824   -0.0388 H   0  0  0  0  0  0  0  0  0  0  0  0
   -2.9017    1.1093   -0.7477 H   0  0  0  0  0  0  0  0  0  0  0  0
   -2.8103    2.5710   -2.7755 O   0  0  0  0  0  0  0  0  0  0  0  0
   -0.1774    2.6552   -0.0489 C   0  0  0  0  0  0  0  0  0  0  0  0
   -0.7365    2.8885   -0.8531 H   0  0  0  0  0  0  0  0  0  0  0  0
    0.7336    3.0675   -0.1671 H   0  0  0  0  0  0  0  0  0  0  0  0
   -0.6440    3.0754    0.8422 H   0  0  0  0  0  0  0  0  0  0  0  0
   -0.0164    1.1680   -0.0041 C   0  0  0  0  0  0  0  0  0  0  0  0
    1.0919    0.3897    0.0000 C   0  0  0  0  0  0  0  0  0  0  0  0
    2.0367    0.7036    0.0021 H   0  0  0  0  0  0  0  0  0  0  0  0
    0.6693   -0.9195    0.0019 N   0  0  0  0  0  0  0  0  0  0  0  0
   -0.6529   -0.9426    0.0021 C   0  0  0  0  0  0  0  0  0  0  0  0
   -1.2201   -1.7609    0.0048 H   0  0  0  0  0  0  0  0  0  0  0  0
   -1.0919    0.3044    0.0000 N   0  0  0  0  0  0  0  0  0  0  0  0
   -2.0528    0.5813    0.0009 H   0  0  0  0  0  0  0  0  0  0  0  0
  1  5  1  0
  5  6  1  0
  5  9  2  0
  1  2  1  0
  1  3  1  0
  1  4  1  0
  6  7  1  0
  6  8  1  0
 10 14  1  0
 14 15  2  0
 15 17  1  0
 17 18  2  0
 18 20  1  0
 20 14  1  0
 10 11  1  0
 10 12  1  0
 10 13  1  0
 15 16  1  0
 18 19  1  0
 20 21  1  0
M  END
>  <PDB_ID>  (148) 
pdb3cki

>  <RESIDUE_NAME>  (148) 
ASN   HID

>  <FRAG_NAME>  (148) 
ACEM   MIMD

>  <FRAG_ATOM_NUM>  (148) 
fragi: 9  fragj: 12

>  <atom.prop.CHAIN_ID>  (148) 
A A A A A A A A A Z Z Z Z Z Z Z Z Z Z Z Z

>  <atom.prop.IS_HEAVY_ATOM>  (148) 
1 0 0 0 1 1 0 0 1 1 0 0 0 1 1 0 1 1 0 1 0

>  <DIFUSE_FUNC_ATOM>  (148) 
n/a

>  <FINAL_SINGLE_POINT_ENERGY>  (148) 
0

>  <NONCOV_INTER_ENERGY_QM>  (148) 
0

>  <FF_Energy>  (148) 
5.23

>  <QM_Energy>  (148) 
11.69

>  <source>  (148) 
ACEM_MIMD

>  <Index>  (148) 
16077

$$$$
ACEM-pdb1yxa-A-ASN-207:MIMD-pdb1yxa-A-HID-357
     RDKit          3D

 21 20  0  0  0  0  0  0  0  0999 V2000
   -5.0122    1.7816   -0.1262 C   0  0  0  0  0  0  0  0  0  0  0  0
   -5.6897    2.2012   -0.7238 H   0  0  0  0  0  0  0  0  0  0  0  0
   -4.1324    2.2352   -0.2337 H   0  0  0  0  0  0  0  0  0  0  0  0
   -5.3393    1.9102    0.9056 H   0  0  0  0  0  0  0  0  0  0  0  0
   -4.8584    0.3233   -0.5135 C   0  0  0  0  0  0  0  0  0  0  0  0
   -3.6217   -0.1387   -0.5893 N   0  0  0  0  0  0  0  0  0  0  0  0
   -2.8463    0.4644   -0.3900 H   0  0  0  0  0  0  0  0  0  0  0  0
   -3.4538   -1.0922   -0.8457 H   0  0  0  0  0  0  0  0  0  0  0  0
   -5.8426   -0.3749   -0.7612 O   0  0  0  0  0  0  0  0  0  0  0  0
   -0.1845    2.6485   -0.0168 C   0  0  0  0  0  0  0  0  0  0  0  0
   -0.7809    2.9024   -0.7853 H   0  0  0  0  0  0  0  0  0  0  0  0
    0.7181    3.0683   -0.1602 H   0  0  0  0  0  0  0  0  0  0  0  0
   -0.6127    3.0331    0.9089 H   0  0  0  0  0  0  0  0  0  0  0  0
   -0.0184    1.1648   -0.0205 C   0  0  0  0  0  0  0  0  0  0  0  0
    1.0907    0.3888    0.0000 C   0  0  0  0  0  0  0  0  0  0  0  0
    2.0350    0.7051    0.0135 H   0  0  0  0  0  0  0  0  0  0  0  0
    0.6697   -0.9177   -0.0008 N   0  0  0  0  0  0  0  0  0  0  0  0
   -0.6513   -0.9408    0.0214 C   0  0  0  0  0  0  0  0  0  0  0  0
   -1.2185   -1.7591    0.0509 H   0  0  0  0  0  0  0  0  0  0  0  0
   -1.0907    0.3048   -0.0000 N   0  0  0  0  0  0  0  0  0  0  0  0
   -2.0519    0.5801   -0.0016 H   0  0  0  0  0  0  0  0  0  0  0  0
  1  5  1  0
  5  6  1  0
  5  9  2  0
  1  2  1  0
  1  3  1  0
  1  4  1  0
  6  7  1  0
  6  8  1  0
 10 14  1  0
 14 15  2  0
 15 17  1  0
 17 18  2  0
 18 20  1  0
 20 14  1  0
 10 11  1  0
 10 12  1  0
 10 13  1  0
 15 16  1  0
 18 19  1  0
 20 21  1  0
M  END
>  <PDB_ID>  (149) 
pdb1yxa

>  <RESIDUE_NAME>  (149) 
ASN   HID

>  <FRAG_NAME>  (149) 
ACEM   MIMD

>  <FRAG_ATOM_NUM>  (149) 
fragi: 9  fragj: 12

>  <atom.prop.CHAIN_ID>  (149) 
A A A A A A A A A Z Z Z Z Z Z Z Z Z Z Z Z

>  <atom.prop.IS_HEAVY_ATOM>  (149) 
1 0 0 0 1 1 0 0 1 1 0 0 0 1 1 0 1 1 0 1 0

>  <DIFUSE_FUNC_ATOM>  (149) 
n/a

>  <FINAL_SINGLE_POINT_ENERGY>  (149) 
0

>  <NONCOV_INTER_ENERGY_QM>  (149) 
0

>  <FF_Energy>  (149) 
21.22

>  <QM_Energy>  (149) 
41.91

>  <source>  (149) 
ACEM_MIMD

>  <Index>  (149) 
16192

$$$$
ACEM-pdb1zb1-A-GLN-281:MIMD-pdb1zb1-A-HID-248
     RDKit          3D

 21 20  0  0  0  0  0  0  0  0999 V2000
   -5.6878    2.4931    1.3314 C   0  0  0  0  0  0  0  0  0  0  0  0
   -6.3871    2.2738    2.0076 H   0  0  0  0  0  0  0  0  0  0  0  0
   -6.1152    2.8477    0.5035 H   0  0  0  0  0  0  0  0  0  0  0  0
   -5.0261    3.2560    1.7418 H   0  0  0  0  0  0  0  0  0  0  0  0
   -4.9390    1.2188    0.9818 C   0  0  0  0  0  0  0  0  0  0  0  0
   -3.8612    1.3541    0.2207 N   0  0  0  0  0  0  0  0  0  0  0  0
   -3.3016    0.5470   -0.0425 H   0  0  0  0  0  0  0  0  0  0  0  0
   -3.5996    2.2855   -0.1007 H   0  0  0  0  0  0  0  0  0  0  0  0
   -5.3261    0.1233    1.3990 O   0  0  0  0  0  0  0  0  0  0  0  0
   -0.1763    2.6520   -0.0018 C   0  0  0  0  0  0  0  0  0  0  0  0
    0.7382    3.0699    0.0484 H   0  0  0  0  0  0  0  0  0  0  0  0
   -0.6926    2.9169    0.8207 H   0  0  0  0  0  0  0  0  0  0  0  0
   -0.6925    3.0393   -0.8802 H   0  0  0  0  0  0  0  0  0  0  0  0
   -0.0166    1.1661   -0.0004 C   0  0  0  0  0  0  0  0  0  0  0  0
    1.0916    0.3893   -0.0000 C   0  0  0  0  0  0  0  0  0  0  0  0
    2.0362    0.7042    0.0007 H   0  0  0  0  0  0  0  0  0  0  0  0
    0.6688   -0.9179    0.0005 N   0  0  0  0  0  0  0  0  0  0  0  0
   -0.6522   -0.9416   -0.0001 C   0  0  0  0  0  0  0  0  0  0  0  0
   -1.2195   -1.7609    0.0007 H   0  0  0  0  0  0  0  0  0  0  0  0
   -1.0916    0.3041    0.0000 N   0  0  0  0  0  0  0  0  0  0  0  0
   -2.0524    0.5810   -0.0006 H   0  0  0  0  0  0  0  0  0  0  0  0
  1  5  1  0
  5  6  1  0
  5  9  2  0
  1  2  1  0
  1  3  1  0
  1  4  1  0
  6  7  1  0
  6  8  1  0
 10 14  1  0
 14 15  2  0
 15 17  1  0
 17 18  2  0
 18 20  1  0
 20 14  1  0
 10 11  1  0
 10 12  1  0
 10 13  1  0
 15 16  1  0
 18 19  1  0
 20 21  1  0
M  END
>  <PDB_ID>  (150) 
pdb1zb1

>  <RESIDUE_NAME>  (150) 
GLN   HID

>  <FRAG_NAME>  (150) 
ACEM   MIMD

>  <FRAG_ATOM_NUM>  (150) 
fragi: 9  fragj: 12

>  <atom.prop.CHAIN_ID>  (150) 
A A A A A A A A A Z Z Z Z Z Z Z Z Z Z Z Z

>  <atom.prop.IS_HEAVY_ATOM>  (150) 
1 0 0 0 1 1 0 0 1 1 0 0 0 1 1 0 1 1 0 1 0

>  <DIFUSE_FUNC_ATOM>  (150) 
n/a

>  <FINAL_SINGLE_POINT_ENERGY>  (150) 
0

>  <NONCOV_INTER_ENERGY_QM>  (150) 
0

>  <FF_Energy>  (150) 
6.39

>  <QM_Energy>  (150) 
12.89

>  <source>  (150) 
ACEM_MIMD

>  <Index>  (150) 
16449

$$$$
ACEM-pdb1zb1-B-GLN-281:MIMD-pdb1zb1-B-HID-248
     RDKit          3D

 21 20  0  0  0  0  0  0  0  0999 V2000
   -5.4941    2.4450    1.6181 C   0  0  0  0  0  0  0  0  0  0  0  0
   -6.1360    2.2310    2.3542 H   0  0  0  0  0  0  0  0  0  0  0  0
   -5.9975    2.7923    0.8271 H   0  0  0  0  0  0  0  0  0  0  0  0
   -4.8044    3.2148    1.9641 H   0  0  0  0  0  0  0  0  0  0  0  0
   -4.7866    1.1607    1.2109 C   0  0  0  0  0  0  0  0  0  0  0  0
   -3.7745    1.2875    0.3622 N   0  0  0  0  0  0  0  0  0  0  0  0
   -3.2462    0.4750    0.0562 H   0  0  0  0  0  0  0  0  0  0  0  0
   -3.5339    2.2156    0.0191 H   0  0  0  0  0  0  0  0  0  0  0  0
   -5.1396    0.0693    1.6640 O   0  0  0  0  0  0  0  0  0  0  0  0
   -0.1776    2.6514   -0.0063 C   0  0  0  0  0  0  0  0  0  0  0  0
    0.7358    3.0716   -0.0104 H   0  0  0  0  0  0  0  0  0  0  0  0
   -0.6505    2.9234    0.8384 H   0  0  0  0  0  0  0  0  0  0  0  0
   -0.7411    3.0261   -0.8607 H   0  0  0  0  0  0  0  0  0  0  0  0
   -0.0165    1.1664    0.0002 C   0  0  0  0  0  0  0  0  0  0  0  0
    1.0923    0.3890   -0.0000 C   0  0  0  0  0  0  0  0  0  0  0  0
    2.0367    0.7037    0.0005 H   0  0  0  0  0  0  0  0  0  0  0  0
    0.6686   -0.9175    0.0006 N   0  0  0  0  0  0  0  0  0  0  0  0
   -0.6521   -0.9415   -0.0009 C   0  0  0  0  0  0  0  0  0  0  0  0
   -1.2187   -1.7609   -0.0012 H   0  0  0  0  0  0  0  0  0  0  0  0
   -1.0923    0.3036    0.0000 N   0  0  0  0  0  0  0  0  0  0  0  0
   -2.0523    0.5809   -0.0000 H   0  0  0  0  0  0  0  0  0  0  0  0
  1  5  1  0
  5  6  1  0
  5  9  2  0
  1  2  1  0
  1  3  1  0
  1  4  1  0
  6  7  1  0
  6  8  1  0
 10 14  1  0
 14 15  2  0
 15 17  1  0
 17 18  2  0
 18 20  1  0
 20 14  1  0
 10 11  1  0
 10 12  1  0
 10 13  1  0
 15 16  1  0
 18 19  1  0
 20 21  1  0
M  END
>  <PDB_ID>  (151) 
pdb1zb1

>  <RESIDUE_NAME>  (151) 
GLN   HID

>  <FRAG_NAME>  (151) 
ACEM   MIMD

>  <FRAG_ATOM_NUM>  (151) 
fragi: 9  fragj: 12

>  <atom.prop.CHAIN_ID>  (151) 
A A A A A A A A A Z Z Z Z Z Z Z Z Z Z Z Z

>  <atom.prop.IS_HEAVY_ATOM>  (151) 
1 0 0 0 1 1 0 0 1 1 0 0 0 1 1 0 1 1 0 1 0

>  <DIFUSE_FUNC_ATOM>  (151) 
n/a

>  <FINAL_SINGLE_POINT_ENERGY>  (151) 
0

>  <NONCOV_INTER_ENERGY_QM>  (151) 
0

>  <FF_Energy>  (151) 
7.71

>  <QM_Energy>  (151) 
15.92

>  <source>  (151) 
ACEM_MIMD

>  <Index>  (151) 
16452

$$$$
ACEM-pdb3d6k-C-GLN-43:MIMD-pdb3d6k-C-HID-312
     RDKit          3D

 21 20  0  0  0  0  0  0  0  0999 V2000
   -4.4975    0.0588   -0.8650 C   0  0  0  0  0  0  0  0  0  0  0  0
   -3.7121    0.5335   -1.2556 H   0  0  0  0  0  0  0  0  0  0  0  0
   -5.3156    0.2596   -1.4005 H   0  0  0  0  0  0  0  0  0  0  0  0
   -4.3111   -1.0146   -0.8993 H   0  0  0  0  0  0  0  0  0  0  0  0
   -4.7051    0.5392    0.5426 C   0  0  0  0  0  0  0  0  0  0  0  0
   -3.6365    1.0251    1.1706 N   0  0  0  0  0  0  0  0  0  0  0  0
   -3.7018    1.3820    2.1213 H   0  0  0  0  0  0  0  0  0  0  0  0
   -2.7420    1.0329    0.6802 H   0  0  0  0  0  0  0  0  0  0  0  0
   -5.8347    0.5210    1.0535 O   0  0  0  0  0  0  0  0  0  0  0  0
   -0.1657    2.6598    0.0080 C   0  0  0  0  0  0  0  0  0  0  0  0
    0.7327    3.0690    0.1985 H   0  0  0  0  0  0  0  0  0  0  0  0
   -0.7952    2.9088    0.7511 H   0  0  0  0  0  0  0  0  0  0  0  0
   -0.5476    3.0626   -0.9301 H   0  0  0  0  0  0  0  0  0  0  0  0
   -0.0120    1.1680    0.0034 C   0  0  0  0  0  0  0  0  0  0  0  0
    1.0907    0.3844    0.0000 C   0  0  0  0  0  0  0  0  0  0  0  0
    2.0390    0.6963    0.0010 H   0  0  0  0  0  0  0  0  0  0  0  0
    0.6660   -0.9203   -0.0032 N   0  0  0  0  0  0  0  0  0  0  0  0
   -0.6540   -0.9400   -0.0003 C   0  0  0  0  0  0  0  0  0  0  0  0
   -1.2246   -1.7565    0.0028 H   0  0  0  0  0  0  0  0  0  0  0  0
   -1.0907    0.3079   -0.0000 N   0  0  0  0  0  0  0  0  0  0  0  0
   -2.0501    0.5874   -0.0033 H   0  0  0  0  0  0  0  0  0  0  0  0
  1  5  1  0
  5  6  1  0
  5  9  2  0
  1  2  1  0
  1  3  1  0
  1  4  1  0
  6  7  1  0
  6  8  1  0
 10 14  1  0
 14 15  2  0
 15 17  1  0
 17 18  2  0
 18 20  1  0
 20 14  1  0
 10 11  1  0
 10 12  1  0
 10 13  1  0
 15 16  1  0
 18 19  1  0
 20 21  1  0
M  END
>  <PDB_ID>  (152) 
pdb3d6k

>  <RESIDUE_NAME>  (152) 
GLN   HID

>  <FRAG_NAME>  (152) 
ACEM   MIMD

>  <FRAG_ATOM_NUM>  (152) 
fragi: 9  fragj: 12

>  <atom.prop.CHAIN_ID>  (152) 
A A A A A A A A A Z Z Z Z Z Z Z Z Z Z Z Z

>  <atom.prop.IS_HEAVY_ATOM>  (152) 
1 0 0 0 1 1 0 0 1 1 0 0 0 1 1 0 1 1 0 1 0

>  <DIFUSE_FUNC_ATOM>  (152) 
n/a

>  <FINAL_SINGLE_POINT_ENERGY>  (152) 
0

>  <NONCOV_INTER_ENERGY_QM>  (152) 
0

>  <FF_Energy>  (152) 
9.14

>  <QM_Energy>  (152) 
22.06

>  <source>  (152) 
ACEM_MIMD

>  <Index>  (152) 
16545

$$$$
ACEM-pdb1zja-B-GLN-14:MIMD-pdb1zja-B-HID-326
     RDKit          3D

 21 20  0  0  0  0  0  0  0  0999 V2000
   -4.5978    1.7710    3.7037 C   0  0  0  0  0  0  0  0  0  0  0  0
   -4.0985    2.6141    3.9270 H   0  0  0  0  0  0  0  0  0  0  0  0
   -4.3283    1.0538    4.3549 H   0  0  0  0  0  0  0  0  0  0  0  0
   -5.6642    1.9611    3.8246 H   0  0  0  0  0  0  0  0  0  0  0  0
   -4.2173    1.3353    2.3150 C   0  0  0  0  0  0  0  0  0  0  0  0
   -2.9128    1.1911    2.0859 N   0  0  0  0  0  0  0  0  0  0  0  0
   -2.5739    0.8849    1.1716 H   0  0  0  0  0  0  0  0  0  0  0  0
   -2.2567    1.3913    2.8351 H   0  0  0  0  0  0  0  0  0  0  0  0
   -5.0679    1.1452    1.4675 O   0  0  0  0  0  0  0  0  0  0  0  0
   -0.1883    2.6596   -0.0571 C   0  0  0  0  0  0  0  0  0  0  0  0
    0.7206    3.0804   -0.0077 H   0  0  0  0  0  0  0  0  0  0  0  0
   -0.7217    2.9392    0.7443 H   0  0  0  0  0  0  0  0  0  0  0  0
   -0.6941    2.9988   -0.9611 H   0  0  0  0  0  0  0  0  0  0  0  0
   -0.0169    1.1671   -0.0072 C   0  0  0  0  0  0  0  0  0  0  0  0
    1.0915    0.3905   -0.0000 C   0  0  0  0  0  0  0  0  0  0  0  0
    2.0367    0.7027    0.0041 H   0  0  0  0  0  0  0  0  0  0  0  0
    0.6673   -0.9210    0.0022 N   0  0  0  0  0  0  0  0  0  0  0  0
   -0.6504   -0.9420    0.0050 C   0  0  0  0  0  0  0  0  0  0  0  0
   -1.2206   -1.7599    0.0111 H   0  0  0  0  0  0  0  0  0  0  0  0
   -1.0915    0.3054    0.0000 N   0  0  0  0  0  0  0  0  0  0  0  0
   -2.0523    0.5799    0.0003 H   0  0  0  0  0  0  0  0  0  0  0  0
  1  5  1  0
  5  6  1  0
  5  9  2  0
  1  2  1  0
  1  3  1  0
  1  4  1  0
  6  7  1  0
  6  8  1  0
 10 14  1  0
 14 15  2  0
 15 17  1  0
 17 18  2  0
 18 20  1  0
 20 14  1  0
 10 11  1  0
 10 12  1  0
 10 13  1  0
 15 16  1  0
 18 19  1  0
 20 21  1  0
M  END
>  <PDB_ID>  (153) 
pdb1zja

>  <RESIDUE_NAME>  (153) 
GLN   HID

>  <FRAG_NAME>  (153) 
ACEM   MIMD

>  <FRAG_ATOM_NUM>  (153) 
fragi: 9  fragj: 12

>  <atom.prop.CHAIN_ID>  (153) 
A A A A A A A A A Z Z Z Z Z Z Z Z Z Z Z Z

>  <atom.prop.IS_HEAVY_ATOM>  (153) 
1 0 0 0 1 1 0 0 1 1 0 0 0 1 1 0 1 1 0 1 0

>  <DIFUSE_FUNC_ATOM>  (153) 
n/a

>  <FINAL_SINGLE_POINT_ENERGY>  (153) 
0

>  <NONCOV_INTER_ENERGY_QM>  (153) 
0

>  <FF_Energy>  (153) 
3.93

>  <QM_Energy>  (153) 
9.44

>  <source>  (153) 
ACEM_MIMD

>  <Index>  (153) 
16598

$$$$
ACEM-pdb3dbx-A-GLN-14:MIMD-pdb3dbx-A-HID-102
     RDKit          3D

 21 20  0  0  0  0  0  0  0  0999 V2000
   -2.7144   -4.3760    0.8068 C   0  0  0  0  0  0  0  0  0  0  0  0
   -2.4203   -3.8662    1.6077 H   0  0  0  0  0  0  0  0  0  0  0  0
   -3.0489   -5.2744    1.0690 H   0  0  0  0  0  0  0  0  0  0  0  0
   -3.5148   -3.8281    0.3096 H   0  0  0  0  0  0  0  0  0  0  0  0
   -1.5169   -4.5569   -0.1148 C   0  0  0  0  0  0  0  0  0  0  0  0
   -0.5825   -3.6170   -0.0643 N   0  0  0  0  0  0  0  0  0  0  0  0
    0.2511   -3.6780   -0.6409 H   0  0  0  0  0  0  0  0  0  0  0  0
   -0.7137   -2.8254    0.5645 H   0  0  0  0  0  0  0  0  0  0  0  0
   -1.4328   -5.5348   -0.8463 O   0  0  0  0  0  0  0  0  0  0  0  0
   -0.1893    2.6567   -0.0177 C   0  0  0  0  0  0  0  0  0  0  0  0
   -0.0844    2.9820   -0.9636 H   0  0  0  0  0  0  0  0  0  0  0  0
    0.5447    3.0598    0.5409 H   0  0  0  0  0  0  0  0  0  0  0  0
   -1.1519    2.9932    0.3675 H   0  0  0  0  0  0  0  0  0  0  0  0
   -0.0215    1.1688   -0.0100 C   0  0  0  0  0  0  0  0  0  0  0  0
    1.0930    0.3906    0.0000 C   0  0  0  0  0  0  0  0  0  0  0  0
    2.0355    0.7069    0.0085 H   0  0  0  0  0  0  0  0  0  0  0  0
    0.6723   -0.9215   -0.0027 N   0  0  0  0  0  0  0  0  0  0  0  0
   -0.6507   -0.9434    0.0127 C   0  0  0  0  0  0  0  0  0  0  0  0
   -1.2186   -1.7607    0.0325 H   0  0  0  0  0  0  0  0  0  0  0  0
   -1.0930    0.3055    0.0000 N   0  0  0  0  0  0  0  0  0  0  0  0
   -2.0551    0.5778   -0.0027 H   0  0  0  0  0  0  0  0  0  0  0  0
  1  5  1  0
  5  6  1  0
  5  9  2  0
  1  2  1  0
  1  3  1  0
  1  4  1  0
  6  7  1  0
  6  8  1  0
 10 14  1  0
 14 15  2  0
 15 17  1  0
 17 18  2  0
 18 20  1  0
 20 14  1  0
 10 11  1  0
 10 12  1  0
 10 13  1  0
 15 16  1  0
 18 19  1  0
 20 21  1  0
M  END
>  <PDB_ID>  (154) 
pdb3dbx

>  <RESIDUE_NAME>  (154) 
GLN   HID

>  <FRAG_NAME>  (154) 
ACEM   MIMD

>  <FRAG_ATOM_NUM>  (154) 
fragi: 9  fragj: 12

>  <atom.prop.CHAIN_ID>  (154) 
A A A A A A A A A Z Z Z Z Z Z Z Z Z Z Z Z

>  <atom.prop.IS_HEAVY_ATOM>  (154) 
1 0 0 0 1 1 0 0 1 1 0 0 0 1 1 0 1 1 0 1 0

>  <DIFUSE_FUNC_ATOM>  (154) 
n/a

>  <FINAL_SINGLE_POINT_ENERGY>  (154) 
0

>  <NONCOV_INTER_ENERGY_QM>  (154) 
0

>  <FF_Energy>  (154) 
6.17

>  <QM_Energy>  (154) 
13.0

>  <source>  (154) 
ACEM_MIMD

>  <Index>  (154) 
16629

$$$$
ACEM-pdb1zoy-A-GLN-325:MIMD-pdb1zoy-A-HID-328
     RDKit          3D

 21 20  0  0  0  0  0  0  0  0999 V2000
   -4.5791   -0.9419    0.9038 C   0  0  0  0  0  0  0  0  0  0  0  0
   -3.8890   -0.8292    0.1930 H   0  0  0  0  0  0  0  0  0  0  0  0
   -5.3856   -0.3988    0.6860 H   0  0  0  0  0  0  0  0  0  0  0  0
   -4.8676   -1.9921    0.9455 H   0  0  0  0  0  0  0  0  0  0  0  0
   -4.0090   -0.4670    2.2170 C   0  0  0  0  0  0  0  0  0  0  0  0
   -2.8280    0.1312    2.1697 N   0  0  0  0  0  0  0  0  0  0  0  0
   -2.3850    0.4916    3.0139 H   0  0  0  0  0  0  0  0  0  0  0  0
   -2.3599    0.2276    1.2677 H   0  0  0  0  0  0  0  0  0  0  0  0
   -4.6240   -0.6388    3.2673 O   0  0  0  0  0  0  0  0  0  0  0  0
   -0.1718    2.6571    0.0377 C   0  0  0  0  0  0  0  0  0  0  0  0
    0.7453    3.0701    0.0992 H   0  0  0  0  0  0  0  0  0  0  0  0
   -0.6846    2.9042    0.8692 H   0  0  0  0  0  0  0  0  0  0  0  0
   -0.6874    3.0720   -0.8284 H   0  0  0  0  0  0  0  0  0  0  0  0
   -0.0166    1.1681    0.0066 C   0  0  0  0  0  0  0  0  0  0  0  0
    1.0902    0.3881   -0.0000 C   0  0  0  0  0  0  0  0  0  0  0  0
    2.0362    0.7025   -0.0026 H   0  0  0  0  0  0  0  0  0  0  0  0
    0.6677   -0.9188   -0.0020 N   0  0  0  0  0  0  0  0  0  0  0  0
   -0.6512   -0.9420   -0.0045 C   0  0  0  0  0  0  0  0  0  0  0  0
   -1.2202   -1.7598   -0.0083 H   0  0  0  0  0  0  0  0  0  0  0  0
   -1.0902    0.3045    0.0000 N   0  0  0  0  0  0  0  0  0  0  0  0
   -2.0516    0.5811   -0.0019 H   0  0  0  0  0  0  0  0  0  0  0  0
  1  5  1  0
  5  6  1  0
  5  9  2  0
  1  2  1  0
  1  3  1  0
  1  4  1  0
  6  7  1  0
  6  8  1  0
 10 14  1  0
 14 15  2  0
 15 17  1  0
 17 18  2  0
 18 20  1  0
 20 14  1  0
 10 11  1  0
 10 12  1  0
 10 13  1  0
 15 16  1  0
 18 19  1  0
 20 21  1  0
M  END
>  <PDB_ID>  (155) 
pdb1zoy

>  <RESIDUE_NAME>  (155) 
GLN   HID

>  <FRAG_NAME>  (155) 
ACEM   MIMD

>  <FRAG_ATOM_NUM>  (155) 
fragi: 9  fragj: 12

>  <atom.prop.CHAIN_ID>  (155) 
A A A A A A A A A Z Z Z Z Z Z Z Z Z Z Z Z

>  <atom.prop.IS_HEAVY_ATOM>  (155) 
1 0 0 0 1 1 0 0 1 1 0 0 0 1 1 0 1 1 0 1 0

>  <DIFUSE_FUNC_ATOM>  (155) 
n/a

>  <FINAL_SINGLE_POINT_ENERGY>  (155) 
0

>  <NONCOV_INTER_ENERGY_QM>  (155) 
0

>  <FF_Energy>  (155) 
6.67

>  <QM_Energy>  (155) 
12.21

>  <source>  (155) 
ACEM_MIMD

>  <Index>  (155) 
16692

$$$$
ACEM-pdb1zyo-A-ASN-185:MIMD-pdb1zyo-A-HID-180
     RDKit          3D

 21 20  0  0  0  0  0  0  0  0999 V2000
   -4.3518   -1.6303   -2.3185 C   0  0  0  0  0  0  0  0  0  0  0  0
   -4.5885   -0.6627   -2.3443 H   0  0  0  0  0  0  0  0  0  0  0  0
   -5.1560   -2.1732   -2.0890 H   0  0  0  0  0  0  0  0  0  0  0  0
   -4.0176   -1.9240   -3.3136 H   0  0  0  0  0  0  0  0  0  0  0  0
   -3.2964   -1.8464   -1.2510 C   0  0  0  0  0  0  0  0  0  0  0  0
   -2.1423   -2.3711   -1.6659 N   0  0  0  0  0  0  0  0  0  0  0  0
   -2.0116   -2.5906   -2.6321 H   0  0  0  0  0  0  0  0  0  0  0  0
   -1.4082   -2.5425   -1.0096 H   0  0  0  0  0  0  0  0  0  0  0  0
   -3.5128   -1.5653   -0.0691 O   0  0  0  0  0  0  0  0  0  0  0  0
   -0.1745    2.6588   -0.0371 C   0  0  0  0  0  0  0  0  0  0  0  0
    0.6621    3.0751    0.3344 H   0  0  0  0  0  0  0  0  0  0  0  0
   -0.9467    2.9082    0.5572 H   0  0  0  0  0  0  0  0  0  0  0  0
   -0.3545    3.0588   -1.0350 H   0  0  0  0  0  0  0  0  0  0  0  0
   -0.0157    1.1686   -0.0031 C   0  0  0  0  0  0  0  0  0  0  0  0
    1.0905    0.3885    0.0000 C   0  0  0  0  0  0  0  0  0  0  0  0
    2.0366    0.7021    0.0022 H   0  0  0  0  0  0  0  0  0  0  0  0
    0.6679   -0.9186    0.0013 N   0  0  0  0  0  0  0  0  0  0  0  0
   -0.6523   -0.9429    0.0019 C   0  0  0  0  0  0  0  0  0  0  0  0
   -1.2199   -1.7609    0.0046 H   0  0  0  0  0  0  0  0  0  0  0  0
   -1.0905    0.3044    0.0000 N   0  0  0  0  0  0  0  0  0  0  0  0
   -2.0520    0.5813    0.0002 H   0  0  0  0  0  0  0  0  0  0  0  0
  1  5  1  0
  5  6  1  0
  5  9  2  0
  1  2  1  0
  1  3  1  0
  1  4  1  0
  6  7  1  0
  6  8  1  0
 10 14  1  0
 14 15  2  0
 15 17  1  0
 17 18  2  0
 18 20  1  0
 20 14  1  0
 10 11  1  0
 10 12  1  0
 10 13  1  0
 15 16  1  0
 18 19  1  0
 20 21  1  0
M  END
>  <PDB_ID>  (156) 
pdb1zyo

>  <RESIDUE_NAME>  (156) 
ASN   HID

>  <FRAG_NAME>  (156) 
ACEM   MIMD

>  <FRAG_ATOM_NUM>  (156) 
fragi: 9  fragj: 12

>  <atom.prop.CHAIN_ID>  (156) 
A A A A A A A A A Z Z Z Z Z Z Z Z Z Z Z Z

>  <atom.prop.IS_HEAVY_ATOM>  (156) 
1 0 0 0 1 1 0 0 1 1 0 0 0 1 1 0 1 1 0 1 0

>  <DIFUSE_FUNC_ATOM>  (156) 
n/a

>  <FINAL_SINGLE_POINT_ENERGY>  (156) 
0

>  <NONCOV_INTER_ENERGY_QM>  (156) 
0

>  <FF_Energy>  (156) 
2.57

>  <QM_Energy>  (156) 
11.55

>  <source>  (156) 
ACEM_MIMD

>  <Index>  (156) 
16862

$$$$
ACEM-pdb3dr6-A-GLN-144:MIMD-pdb3dr6-B-HID-114
     RDKit          3D

 21 20  0  0  0  0  0  0  0  0999 V2000
   -3.2690   -4.0337    0.6442 C   0  0  0  0  0  0  0  0  0  0  0  0
   -3.8139   -4.2046    1.4630 H   0  0  0  0  0  0  0  0  0  0  0  0
   -3.5951   -4.6071   -0.1055 H   0  0  0  0  0  0  0  0  0  0  0  0
   -3.4406   -2.9970    0.3544 H   0  0  0  0  0  0  0  0  0  0  0  0
   -1.8201   -4.3426    0.9268 C   0  0  0  0  0  0  0  0  0  0  0  0
   -0.9287   -3.4515    0.4479 N   0  0  0  0  0  0  0  0  0  0  0  0
    0.0659   -3.5841    0.6102 H   0  0  0  0  0  0  0  0  0  0  0  0
   -1.2731   -2.6546   -0.0738 H   0  0  0  0  0  0  0  0  0  0  0  0
   -1.4802   -5.3644    1.5529 O   0  0  0  0  0  0  0  0  0  0  0  0
   -0.1574    2.6678   -0.0370 C   0  0  0  0  0  0  0  0  0  0  0  0
    0.2464    3.0451    0.8033 H   0  0  0  0  0  0  0  0  0  0  0  0
   -1.1375    2.8888   -0.0498 H   0  0  0  0  0  0  0  0  0  0  0  0
    0.3192    3.1374   -0.8974 H   0  0  0  0  0  0  0  0  0  0  0  0
   -0.0127    1.1712    0.0006 C   0  0  0  0  0  0  0  0  0  0  0  0
    1.0953    0.3862    0.0000 C   0  0  0  0  0  0  0  0  0  0  0  0
    2.0408    0.6989    0.0029 H   0  0  0  0  0  0  0  0  0  0  0  0
    0.6697   -0.9219   -0.0061 N   0  0  0  0  0  0  0  0  0  0  0  0
   -0.6571   -0.9428    0.0055 C   0  0  0  0  0  0  0  0  0  0  0  0
   -1.2236   -1.7593    0.0172 H   0  0  0  0  0  0  0  0  0  0  0  0
   -1.0953    0.3073   -0.0000 N   0  0  0  0  0  0  0  0  0  0  0  0
   -2.0523    0.5876   -0.0045 H   0  0  0  0  0  0  0  0  0  0  0  0
  1  5  1  0
  5  6  1  0
  5  9  2  0
  1  2  1  0
  1  3  1  0
  1  4  1  0
  6  7  1  0
  6  8  1  0
 10 14  1  0
 14 15  2  0
 15 17  1  0
 17 18  2  0
 18 20  1  0
 20 14  1  0
 10 11  1  0
 10 12  1  0
 10 13  1  0
 15 16  1  0
 18 19  1  0
 20 21  1  0
M  END
>  <PDB_ID>  (157) 
pdb3dr6

>  <RESIDUE_NAME>  (157) 
GLN   HID

>  <FRAG_NAME>  (157) 
ACEM   MIMD

>  <FRAG_ATOM_NUM>  (157) 
fragi: 9  fragj: 12

>  <atom.prop.CHAIN_ID>  (157) 
A A A A A A A A A Z Z Z Z Z Z Z Z Z Z Z Z

>  <atom.prop.IS_HEAVY_ATOM>  (157) 
1 0 0 0 1 1 0 0 1 1 0 0 0 1 1 0 1 1 0 1 0

>  <DIFUSE_FUNC_ATOM>  (157) 
n/a

>  <FINAL_SINGLE_POINT_ENERGY>  (157) 
0

>  <NONCOV_INTER_ENERGY_QM>  (157) 
0

>  <FF_Energy>  (157) 
25.95

>  <QM_Energy>  (157) 
43.3

>  <source>  (157) 
ACEM_MIMD

>  <Index>  (157) 
16950

$$$$
ACEM-pdb3dtd-A-ASN-53:MIMD-pdb3dtd-A-HID-66
     RDKit          3D

 21 20  0  0  0  0  0  0  0  0999 V2000
   -2.9622   -3.8068    1.4830 C   0  0  0  0  0  0  0  0  0  0  0  0
   -2.7758   -2.8633    1.7419 H   0  0  0  0  0  0  0  0  0  0  0  0
   -3.2124   -4.3403    2.2858 H   0  0  0  0  0  0  0  0  0  0  0  0
   -3.8027   -3.8149    0.7889 H   0  0  0  0  0  0  0  0  0  0  0  0
   -1.7055   -4.3996    0.8791 C   0  0  0  0  0  0  0  0  0  0  0  0
   -0.8049   -3.5360    0.4088 N   0  0  0  0  0  0  0  0  0  0  0  0
   -0.9827   -2.5528    0.4751 H   0  0  0  0  0  0  0  0  0  0  0  0
    0.0387   -3.8678   -0.0040 H   0  0  0  0  0  0  0  0  0  0  0  0
   -1.5390   -5.6184    0.8426 O   0  0  0  0  0  0  0  0  0  0  0  0
   -0.1792    2.6530    0.0084 C   0  0  0  0  0  0  0  0  0  0  0  0
    0.6811    3.0677    0.3291 H   0  0  0  0  0  0  0  0  0  0  0  0
   -0.9090    2.8937    0.6599 H   0  0  0  0  0  0  0  0  0  0  0  0
   -0.4291    3.0757   -0.9648 H   0  0  0  0  0  0  0  0  0  0  0  0
   -0.0176    1.1676    0.0054 C   0  0  0  0  0  0  0  0  0  0  0  0
    1.0910    0.3896    0.0000 C   0  0  0  0  0  0  0  0  0  0  0  0
    2.0363    0.7043   -0.0019 H   0  0  0  0  0  0  0  0  0  0  0  0
    0.6692   -0.9178   -0.0025 N   0  0  0  0  0  0  0  0  0  0  0  0
   -0.6516   -0.9425   -0.0029 C   0  0  0  0  0  0  0  0  0  0  0  0
   -1.2181   -1.7620   -0.0030 H   0  0  0  0  0  0  0  0  0  0  0  0
   -1.0910    0.3031   -0.0000 N   0  0  0  0  0  0  0  0  0  0  0  0
   -2.0524    0.5787   -0.0022 H   0  0  0  0  0  0  0  0  0  0  0  0
  1  5  1  0
  5  6  1  0
  5  9  2  0
  1  2  1  0
  1  3  1  0
  1  4  1  0
  6  7  1  0
  6  8  1  0
 10 14  1  0
 14 15  2  0
 15 17  1  0
 17 18  2  0
 18 20  1  0
 20 14  1  0
 10 11  1  0
 10 12  1  0
 10 13  1  0
 15 16  1  0
 18 19  1  0
 20 21  1  0
M  END
>  <PDB_ID>  (158) 
pdb3dtd

>  <RESIDUE_NAME>  (158) 
ASN   HID

>  <FRAG_NAME>  (158) 
ACEM   MIMD

>  <FRAG_ATOM_NUM>  (158) 
fragi: 9  fragj: 12

>  <atom.prop.CHAIN_ID>  (158) 
A A A A A A A A A Z Z Z Z Z Z Z Z Z Z Z Z

>  <atom.prop.IS_HEAVY_ATOM>  (158) 
1 0 0 0 1 1 0 0 1 1 0 0 0 1 1 0 1 1 0 1 0

>  <DIFUSE_FUNC_ATOM>  (158) 
n/a

>  <FINAL_SINGLE_POINT_ENERGY>  (158) 
0

>  <NONCOV_INTER_ENERGY_QM>  (158) 
0

>  <FF_Energy>  (158) 
15.59

>  <QM_Energy>  (158) 
34.68

>  <source>  (158) 
ACEM_MIMD

>  <Index>  (158) 
16968

$$$$
ACEM-pdb3egc-C-ASN-79:MIMD-pdb3egc-C-HID-254
     RDKit          3D

 21 20  0  0  0  0  0  0  0  0999 V2000
    0.0510   -5.6846   -0.9016 C   0  0  0  0  0  0  0  0  0  0  0  0
    0.4638   -5.7930   -1.8013 H   0  0  0  0  0  0  0  0  0  0  0  0
   -0.6031   -6.4178   -0.7343 H   0  0  0  0  0  0  0  0  0  0  0  0
    0.8316   -5.7199   -0.1416 H   0  0  0  0  0  0  0  0  0  0  0  0
   -0.7541   -4.3405   -0.9199 C   0  0  0  0  0  0  0  0  0  0  0  0
   -0.9218   -3.7507    0.2520 N   0  0  0  0  0  0  0  0  0  0  0  0
   -0.5383   -4.1620    1.0820 H   0  0  0  0  0  0  0  0  0  0  0  0
   -1.4311   -2.8905    0.3161 H   0  0  0  0  0  0  0  0  0  0  0  0
   -1.1979   -3.8591   -1.9502 O   0  0  0  0  0  0  0  0  0  0  0  0
   -0.2223    2.6502   -0.0935 C   0  0  0  0  0  0  0  0  0  0  0  0
    0.6429    3.1008    0.1712 H   0  0  0  0  0  0  0  0  0  0  0  0
   -0.9282    2.9204    0.5771 H   0  0  0  0  0  0  0  0  0  0  0  0
   -0.5192    3.0356   -1.0690 H   0  0  0  0  0  0  0  0  0  0  0  0
   -0.0340    1.1711   -0.0214 C   0  0  0  0  0  0  0  0  0  0  0  0
    1.0902    0.3961    0.0000 C   0  0  0  0  0  0  0  0  0  0  0  0
    2.0290    0.7208   -0.0071 H   0  0  0  0  0  0  0  0  0  0  0  0
    0.6780   -0.9196    0.0350 N   0  0  0  0  0  0  0  0  0  0  0  0
   -0.6440   -0.9470   -0.0136 C   0  0  0  0  0  0  0  0  0  0  0  0
   -1.2076   -1.7661   -0.0518 H   0  0  0  0  0  0  0  0  0  0  0  0
   -1.0902    0.2993   -0.0000 N   0  0  0  0  0  0  0  0  0  0  0  0
   -2.0586    0.5634    0.0212 H   0  0  0  0  0  0  0  0  0  0  0  0
  1  5  1  0
  5  6  1  0
  5  9  2  0
  1  2  1  0
  1  3  1  0
  1  4  1  0
  6  7  1  0
  6  8  1  0
 10 14  1  0
 14 15  2  0
 15 17  1  0
 17 18  2  0
 18 20  1  0
 20 14  1  0
 10 11  1  0
 10 12  1  0
 10 13  1  0
 15 16  1  0
 18 19  1  0
 20 21  1  0
M  END
>  <PDB_ID>  (159) 
pdb3egc

>  <RESIDUE_NAME>  (159) 
ASN   HID

>  <FRAG_NAME>  (159) 
ACEM   MIMD

>  <FRAG_ATOM_NUM>  (159) 
fragi: 9  fragj: 12

>  <atom.prop.CHAIN_ID>  (159) 
A A A A A A A A A Z Z Z Z Z Z Z Z Z Z Z Z

>  <atom.prop.IS_HEAVY_ATOM>  (159) 
1 0 0 0 1 1 0 0 1 1 0 0 0 1 1 0 1 1 0 1 0

>  <DIFUSE_FUNC_ATOM>  (159) 
n/a

>  <FINAL_SINGLE_POINT_ENERGY>  (159) 
0

>  <NONCOV_INTER_ENERGY_QM>  (159) 
0

>  <FF_Energy>  (159) 
5.01

>  <QM_Energy>  (159) 
15.01

>  <source>  (159) 
ACEM_MIMD

>  <Index>  (159) 
17280

$$$$
ACEM-pdb4aa2-A-GLN-377:MIMD-pdb4aa2-A-HID-553
     RDKit          3D

 21 20  0  0  0  0  0  0  0  0999 V2000
   -5.7652    1.8067    1.3149 C   0  0  0  0  0  0  0  0  0  0  0  0
   -6.5782    1.7839    0.7318 H   0  0  0  0  0  0  0  0  0  0  0  0
   -5.6623    2.7223    1.7045 H   0  0  0  0  0  0  0  0  0  0  0  0
   -5.9062    1.0981    2.1310 H   0  0  0  0  0  0  0  0  0  0  0  0
   -4.5451    1.5031    0.4569 C   0  0  0  0  0  0  0  0  0  0  0  0
   -3.5190    0.9253    1.0716 N   0  0  0  0  0  0  0  0  0  0  0  0
   -2.6767    0.6811    0.5603 H   0  0  0  0  0  0  0  0  0  0  0  0
   -3.5895    0.7313    2.0692 H   0  0  0  0  0  0  0  0  0  0  0  0
   -4.5322    1.7732   -0.7458 O   0  0  0  0  0  0  0  0  0  0  0  0
   -0.1791    2.6569   -0.0138 C   0  0  0  0  0  0  0  0  0  0  0  0
   -0.7858    2.9135   -0.7698 H   0  0  0  0  0  0  0  0  0  0  0  0
    0.7208    3.0751   -0.1616 H   0  0  0  0  0  0  0  0  0  0  0  0
   -0.5956    3.0392    0.9181 H   0  0  0  0  0  0  0  0  0  0  0  0
   -0.0166    1.1675   -0.0204 C   0  0  0  0  0  0  0  0  0  0  0  0
    1.0916    0.3887   -0.0000 C   0  0  0  0  0  0  0  0  0  0  0  0
    2.0369    0.7034    0.0061 H   0  0  0  0  0  0  0  0  0  0  0  0
    0.6685   -0.9179    0.0113 N   0  0  0  0  0  0  0  0  0  0  0  0
   -0.6519   -0.9422    0.0091 C   0  0  0  0  0  0  0  0  0  0  0  0
   -1.2191   -1.7608    0.0150 H   0  0  0  0  0  0  0  0  0  0  0  0
   -1.0916    0.3039    0.0000 N   0  0  0  0  0  0  0  0  0  0  0  0
   -2.0519    0.5809    0.0064 H   0  0  0  0  0  0  0  0  0  0  0  0
  1  5  1  0
  5  6  1  0
  5  9  2  0
  1  2  1  0
  1  3  1  0
  1  4  1  0
  6  7  1  0
  6  8  1  0
 10 14  1  0
 14 15  2  0
 15 17  1  0
 17 18  2  0
 18 20  1  0
 20 14  1  0
 10 11  1  0
 10 12  1  0
 10 13  1  0
 15 16  1  0
 18 19  1  0
 20 21  1  0
M  END
>  <PDB_ID>  (160) 
pdb4aa2

>  <RESIDUE_NAME>  (160) 
GLN   HID

>  <FRAG_NAME>  (160) 
ACEM   MIMD

>  <FRAG_ATOM_NUM>  (160) 
fragi: 9  fragj: 12

>  <atom.prop.CHAIN_ID>  (160) 
A A A A A A A A A Z Z Z Z Z Z Z Z Z Z Z Z

>  <atom.prop.IS_HEAVY_ATOM>  (160) 
1 0 0 0 1 1 0 0 1 1 0 0 0 1 1 0 1 1 0 1 0

>  <DIFUSE_FUNC_ATOM>  (160) 
n/a

>  <FINAL_SINGLE_POINT_ENERGY>  (160) 
0

>  <NONCOV_INTER_ENERGY_QM>  (160) 
0

>  <FF_Energy>  (160) 
16.09

>  <QM_Energy>  (160) 
44.29

>  <source>  (160) 
ACEM_MIMD

>  <Index>  (160) 
17580

$$$$
ACEM-pdb4aee-A-GLN-230:MIMD-pdb4aee-A-HID-535
     RDKit          3D

 21 20  0  0  0  0  0  0  0  0999 V2000
   -4.9245    1.3645    2.7726 C   0  0  0  0  0  0  0  0  0  0  0  0
   -4.5020    2.1574    3.2195 H   0  0  0  0  0  0  0  0  0  0  0  0
   -4.8023    0.5580    3.3571 H   0  0  0  0  0  0  0  0  0  0  0  0
   -5.9932    1.5576    2.6807 H   0  0  0  0  0  0  0  0  0  0  0  0
   -4.2237    1.1197    1.4475 C   0  0  0  0  0  0  0  0  0  0  0  0
   -3.0161    0.5863    1.5054 N   0  0  0  0  0  0  0  0  0  0  0  0
   -2.4908    0.3810    0.6583 H   0  0  0  0  0  0  0  0  0  0  0  0
   -2.6095    0.3809    2.4189 H   0  0  0  0  0  0  0  0  0  0  0  0
   -4.7683    1.4146    0.3795 O   0  0  0  0  0  0  0  0  0  0  0  0
   -0.1746    2.6566    0.0094 C   0  0  0  0  0  0  0  0  0  0  0  0
    0.7046    3.0658    0.2696 H   0  0  0  0  0  0  0  0  0  0  0  0
   -0.8600    2.8927    0.7035 H   0  0  0  0  0  0  0  0  0  0  0  0
   -0.4866    3.0728   -0.9485 H   0  0  0  0  0  0  0  0  0  0  0  0
   -0.0165    1.1666   -0.0126 C   0  0  0  0  0  0  0  0  0  0  0  0
    1.0916    0.3886   -0.0000 C   0  0  0  0  0  0  0  0  0  0  0  0
    2.0370    0.7033    0.0039 H   0  0  0  0  0  0  0  0  0  0  0  0
    0.6688   -0.9179    0.0097 N   0  0  0  0  0  0  0  0  0  0  0  0
   -0.6522   -0.9422    0.0029 C   0  0  0  0  0  0  0  0  0  0  0  0
   -1.2192   -1.7602    0.0011 H   0  0  0  0  0  0  0  0  0  0  0  0
   -1.0916    0.3049    0.0000 N   0  0  0  0  0  0  0  0  0  0  0  0
   -2.0524    0.5813    0.0052 H   0  0  0  0  0  0  0  0  0  0  0  0
  1  5  1  0
  5  6  1  0
  5  9  2  0
  1  2  1  0
  1  3  1  0
  1  4  1  0
  6  7  1  0
  6  8  1  0
 10 14  1  0
 14 15  2  0
 15 17  1  0
 17 18  2  0
 18 20  1  0
 20 14  1  0
 10 11  1  0
 10 12  1  0
 10 13  1  0
 15 16  1  0
 18 19  1  0
 20 21  1  0
M  END
>  <PDB_ID>  (161) 
pdb4aee

>  <RESIDUE_NAME>  (161) 
GLN   HID

>  <FRAG_NAME>  (161) 
ACEM   MIMD

>  <FRAG_ATOM_NUM>  (161) 
fragi: 9  fragj: 12

>  <atom.prop.CHAIN_ID>  (161) 
A A A A A A A A A Z Z Z Z Z Z Z Z Z Z Z Z

>  <atom.prop.IS_HEAVY_ATOM>  (161) 
1 0 0 0 1 1 0 0 1 1 0 0 0 1 1 0 1 1 0 1 0

>  <DIFUSE_FUNC_ATOM>  (161) 
n/a

>  <FINAL_SINGLE_POINT_ENERGY>  (161) 
0

>  <NONCOV_INTER_ENERGY_QM>  (161) 
0

>  <FF_Energy>  (161) 
34.31

>  <QM_Energy>  (161) 
60.11

>  <source>  (161) 
ACEM_MIMD

>  <Index>  (161) 
17687

$$$$
ACEM-pdb4b31-B-ASN-502:MIMD-pdb4b31-B-HID-506
     RDKit          3D

 21 20  0  0  0  0  0  0  0  0999 V2000
   -6.0852    1.8008    0.9876 C   0  0  0  0  0  0  0  0  0  0  0  0
   -6.0699    1.1561    1.7408 H   0  0  0  0  0  0  0  0  0  0  0  0
   -6.9750    1.8097    0.5493 H   0  0  0  0  0  0  0  0  0  0  0  0
   -5.8817    2.7974    1.3794 H   0  0  0  0  0  0  0  0  0  0  0  0
   -5.0427    1.3645   -0.0428 C   0  0  0  0  0  0  0  0  0  0  0  0
   -3.7604    1.4515    0.3186 N   0  0  0  0  0  0  0  0  0  0  0  0
   -3.5360    1.7874    1.2369 H   0  0  0  0  0  0  0  0  0  0  0  0
   -3.0414    1.1868   -0.3126 H   0  0  0  0  0  0  0  0  0  0  0  0
   -5.3985    0.9553   -1.1653 O   0  0  0  0  0  0  0  0  0  0  0  0
   -0.2448    2.6915    0.0211 C   0  0  0  0  0  0  0  0  0  0  0  0
   -0.7278    2.9559   -0.8140 H   0  0  0  0  0  0  0  0  0  0  0  0
    0.6625    3.1135    0.0282 H   0  0  0  0  0  0  0  0  0  0  0  0
   -0.8084    3.0361    0.8881 H   0  0  0  0  0  0  0  0  0  0  0  0
   -0.0556    1.1810   -0.0075 C   0  0  0  0  0  0  0  0  0  0  0  0
    1.1049    0.3958   -0.0000 C   0  0  0  0  0  0  0  0  0  0  0  0
    2.0279    0.7454    0.0060 H   0  0  0  0  0  0  0  0  0  0  0  0
    0.7065   -0.9220   -0.0016 N   0  0  0  0  0  0  0  0  0  0  0  0
   -0.6509   -0.9632    0.0091 C   0  0  0  0  0  0  0  0  0  0  0  0
   -1.1993   -1.7752    0.0223 H   0  0  0  0  0  0  0  0  0  0  0  0
   -1.1049    0.3084   -0.0000 N   0  0  0  0  0  0  0  0  0  0  0  0
   -2.0757    0.5548   -0.0018 H   0  0  0  0  0  0  0  0  0  0  0  0
  1  5  1  0
  5  6  1  0
  5  9  2  0
  1  2  1  0
  1  3  1  0
  1  4  1  0
  6  7  1  0
  6  8  1  0
 10 14  1  0
 14 15  2  0
 15 17  1  0
 17 18  2  0
 18 20  1  0
 20 14  1  0
 10 11  1  0
 10 12  1  0
 10 13  1  0
 15 16  1  0
 18 19  1  0
 20 21  1  0
M  END
>  <PDB_ID>  (162) 
pdb4b31

>  <RESIDUE_NAME>  (162) 
ASN   HID

>  <FRAG_NAME>  (162) 
ACEM   MIMD

>  <FRAG_ATOM_NUM>  (162) 
fragi: 9  fragj: 12

>  <atom.prop.CHAIN_ID>  (162) 
A A A A A A A A A Z Z Z Z Z Z Z Z Z Z Z Z

>  <atom.prop.IS_HEAVY_ATOM>  (162) 
1 0 0 0 1 1 0 0 1 1 0 0 0 1 1 0 1 1 0 1 0

>  <DIFUSE_FUNC_ATOM>  (162) 
n/a

>  <FINAL_SINGLE_POINT_ENERGY>  (162) 
0

>  <NONCOV_INTER_ENERGY_QM>  (162) 
0

>  <FF_Energy>  (162) 
6.23

>  <QM_Energy>  (162) 
14.58

>  <source>  (162) 
ACEM_MIMD

>  <Index>  (162) 
18132

$$$$
ACEM-pdb3frq-A-GLN-156:MIMD-pdb3frq-B-HID-147
     RDKit          3D

 21 20  0  0  0  0  0  0  0  0999 V2000
   -4.6398   -0.4627    0.2568 C   0  0  0  0  0  0  0  0  0  0  0  0
   -3.8319   -0.8472    0.7134 H   0  0  0  0  0  0  0  0  0  0  0  0
   -4.4843   -0.4728   -0.7357 H   0  0  0  0  0  0  0  0  0  0  0  0
   -5.5302   -1.0385    0.5091 H   0  0  0  0  0  0  0  0  0  0  0  0
   -4.7628    0.9822    0.6868 C   0  0  0  0  0  0  0  0  0  0  0  0
   -3.6640    1.7188    0.5900 N   0  0  0  0  0  0  0  0  0  0  0  0
   -3.6705    2.7057    0.8476 H   0  0  0  0  0  0  0  0  0  0  0  0
   -2.8064    1.2844    0.2532 H   0  0  0  0  0  0  0  0  0  0  0  0
   -5.8606    1.4466    1.0681 O   0  0  0  0  0  0  0  0  0  0  0  0
   -0.1795    2.6558    0.1434 C   0  0  0  0  0  0  0  0  0  0  0  0
    0.4978    3.0179    0.7944 H   0  0  0  0  0  0  0  0  0  0  0  0
   -1.0999    2.8597    0.4976 H   0  0  0  0  0  0  0  0  0  0  0  0
   -0.0528    3.1634   -0.8129 H   0  0  0  0  0  0  0  0  0  0  0  0
   -0.0201    1.1686    0.0737 C   0  0  0  0  0  0  0  0  0  0  0  0
    1.0970    0.3846   -0.0000 C   0  0  0  0  0  0  0  0  0  0  0  0
    2.0378    0.7047   -0.0177 H   0  0  0  0  0  0  0  0  0  0  0  0
    0.6737   -0.9226   -0.0438 N   0  0  0  0  0  0  0  0  0  0  0  0
   -0.6536   -0.9423   -0.0299 C   0  0  0  0  0  0  0  0  0  0  0  0
   -1.2220   -1.7577   -0.0392 H   0  0  0  0  0  0  0  0  0  0  0  0
   -1.0970    0.3117    0.0000 N   0  0  0  0  0  0  0  0  0  0  0  0
   -2.0546    0.5848   -0.0275 H   0  0  0  0  0  0  0  0  0  0  0  0
  1  5  1  0
  5  6  1  0
  5  9  2  0
  1  2  1  0
  1  3  1  0
  1  4  1  0
  6  7  1  0
  6  8  1  0
 10 14  1  0
 14 15  2  0
 15 17  1  0
 17 18  2  0
 18 20  1  0
 20 14  1  0
 10 11  1  0
 10 12  1  0
 10 13  1  0
 15 16  1  0
 18 19  1  0
 20 21  1  0
M  END
>  <PDB_ID>  (163) 
pdb3frq

>  <RESIDUE_NAME>  (163) 
GLN   HID

>  <FRAG_NAME>  (163) 
ACEM   MIMD

>  <FRAG_ATOM_NUM>  (163) 
fragi: 9  fragj: 12

>  <atom.prop.CHAIN_ID>  (163) 
A A A A A A A A A Z Z Z Z Z Z Z Z Z Z Z Z

>  <atom.prop.IS_HEAVY_ATOM>  (163) 
1 0 0 0 1 1 0 0 1 1 0 0 0 1 1 0 1 1 0 1 0

>  <DIFUSE_FUNC_ATOM>  (163) 
n/a

>  <FINAL_SINGLE_POINT_ENERGY>  (163) 
0

>  <NONCOV_INTER_ENERGY_QM>  (163) 
0

>  <FF_Energy>  (163) 
9.19

>  <QM_Energy>  (163) 
21.51

>  <source>  (163) 
ACEM_MIMD

>  <Index>  (163) 
18545

$$$$
ACEM-pdb3frq-B-GLN-156:MIMD-pdb3frq-A-HID-147
     RDKit          3D

 21 20  0  0  0  0  0  0  0  0999 V2000
   -4.5746   -0.5409    0.4952 C   0  0  0  0  0  0  0  0  0  0  0  0
   -3.7517   -0.8376    0.9747 H   0  0  0  0  0  0  0  0  0  0  0  0
   -4.4526   -0.6535   -0.4881 H   0  0  0  0  0  0  0  0  0  0  0  0
   -5.4433   -1.1008    0.8413 H   0  0  0  0  0  0  0  0  0  0  0  0
   -4.7595    0.9379    0.7707 C   0  0  0  0  0  0  0  0  0  0  0  0
   -3.6829    1.6826    0.6048 N   0  0  0  0  0  0  0  0  0  0  0  0
   -3.7233    2.6995    0.7574 H   0  0  0  0  0  0  0  0  0  0  0  0
   -2.8093    1.2458    0.3255 H   0  0  0  0  0  0  0  0  0  0  0  0
   -5.8934    1.4083    1.0713 O   0  0  0  0  0  0  0  0  0  0  0  0
   -0.2012    2.6564   -0.0262 C   0  0  0  0  0  0  0  0  0  0  0  0
    0.5102    3.0674    0.5533 H   0  0  0  0  0  0  0  0  0  0  0  0
   -1.1006    2.8790    0.3657 H   0  0  0  0  0  0  0  0  0  0  0  0
   -0.1392    3.1052   -1.0176 H   0  0  0  0  0  0  0  0  0  0  0  0
   -0.0291    1.1701   -0.0137 C   0  0  0  0  0  0  0  0  0  0  0  0
    1.0917    0.3988    0.0000 C   0  0  0  0  0  0  0  0  0  0  0  0
    2.0309    0.7187    0.0070 H   0  0  0  0  0  0  0  0  0  0  0  0
    0.6739   -0.9185    0.0038 N   0  0  0  0  0  0  0  0  0  0  0  0
   -0.6448   -0.9499    0.0099 C   0  0  0  0  0  0  0  0  0  0  0  0
   -1.2100   -1.7687    0.0214 H   0  0  0  0  0  0  0  0  0  0  0  0
   -1.0917    0.2995   -0.0000 N   0  0  0  0  0  0  0  0  0  0  0  0
   -2.0577    0.5644    0.0019 H   0  0  0  0  0  0  0  0  0  0  0  0
  1  5  1  0
  5  6  1  0
  5  9  2  0
  1  2  1  0
  1  3  1  0
  1  4  1  0
  6  7  1  0
  6  8  1  0
 10 14  1  0
 14 15  2  0
 15 17  1  0
 17 18  2  0
 18 20  1  0
 20 14  1  0
 10 11  1  0
 10 12  1  0
 10 13  1  0
 15 16  1  0
 18 19  1  0
 20 21  1  0
M  END
>  <PDB_ID>  (164) 
pdb3frq

>  <RESIDUE_NAME>  (164) 
GLN   HID

>  <FRAG_NAME>  (164) 
ACEM   MIMD

>  <FRAG_ATOM_NUM>  (164) 
fragi: 9  fragj: 12

>  <atom.prop.CHAIN_ID>  (164) 
A A A A A A A A A Z Z Z Z Z Z Z Z Z Z Z Z

>  <atom.prop.IS_HEAVY_ATOM>  (164) 
1 0 0 0 1 1 0 0 1 1 0 0 0 1 1 0 1 1 0 1 0

>  <DIFUSE_FUNC_ATOM>  (164) 
n/a

>  <FINAL_SINGLE_POINT_ENERGY>  (164) 
0

>  <NONCOV_INTER_ENERGY_QM>  (164) 
0

>  <FF_Energy>  (164) 
8.97

>  <QM_Energy>  (164) 
21.18

>  <source>  (164) 
ACEM_MIMD

>  <Index>  (164) 
18546

$$$$
ACEM-pdb4c91-B-ASN-398:MIMD-pdb4c91-B-HID-422
     RDKit          3D

 21 20  0  0  0  0  0  0  0  0999 V2000
   -0.4264    0.1989   -4.0769 C   0  0  0  0  0  0  0  0  0  0  0  0
   -0.5272    0.3937   -5.0426 H   0  0  0  0  0  0  0  0  0  0  0  0
    0.5003    0.3703   -3.7735 H   0  0  0  0  0  0  0  0  0  0  0  0
   -1.1011    0.8468   -3.5174 H   0  0  0  0  0  0  0  0  0  0  0  0
   -0.7523   -1.2644   -3.8410 C   0  0  0  0  0  0  0  0  0  0  0  0
   -0.7715   -1.6806   -2.5855 N   0  0  0  0  0  0  0  0  0  0  0  0
   -0.5798   -1.0298   -1.8441 H   0  0  0  0  0  0  0  0  0  0  0  0
   -0.9741   -2.6338   -2.3702 H   0  0  0  0  0  0  0  0  0  0  0  0
   -0.9151   -2.0212   -4.7949 O   0  0  0  0  0  0  0  0  0  0  0  0
   -0.1968    2.6287   -0.0522 C   0  0  0  0  0  0  0  0  0  0  0  0
   -0.9299    2.8492   -0.7079 H   0  0  0  0  0  0  0  0  0  0  0  0
    0.6590    3.0435   -0.3878 H   0  0  0  0  0  0  0  0  0  0  0  0
   -0.4441    3.0597    0.9180 H   0  0  0  0  0  0  0  0  0  0  0  0
   -0.0252    1.1619   -0.0141 C   0  0  0  0  0  0  0  0  0  0  0  0
    1.0895    0.3895   -0.0000 C   0  0  0  0  0  0  0  0  0  0  0  0
    2.0315    0.7117    0.0042 H   0  0  0  0  0  0  0  0  0  0  0  0
    0.6726   -0.9148    0.0079 N   0  0  0  0  0  0  0  0  0  0  0  0
   -0.6474   -0.9428    0.0062 C   0  0  0  0  0  0  0  0  0  0  0  0
   -1.2135   -1.7604    0.0099 H   0  0  0  0  0  0  0  0  0  0  0  0
   -1.0895    0.3062    0.0000 N   0  0  0  0  0  0  0  0  0  0  0  0
   -2.0538    0.5748    0.0045 H   0  0  0  0  0  0  0  0  0  0  0  0
  1  5  1  0
  5  6  1  0
  5  9  2  0
  1  2  1  0
  1  3  1  0
  1  4  1  0
  6  7  1  0
  6  8  1  0
 10 14  1  0
 14 15  2  0
 15 17  1  0
 17 18  2  0
 18 20  1  0
 20 14  1  0
 10 11  1  0
 10 12  1  0
 10 13  1  0
 15 16  1  0
 18 19  1  0
 20 21  1  0
M  END
>  <PDB_ID>  (165) 
pdb4c91

>  <RESIDUE_NAME>  (165) 
ASN   HID

>  <FRAG_NAME>  (165) 
ACEM   MIMD

>  <FRAG_ATOM_NUM>  (165) 
fragi: 9  fragj: 12

>  <atom.prop.CHAIN_ID>  (165) 
A A A A A A A A A Z Z Z Z Z Z Z Z Z Z Z Z

>  <atom.prop.IS_HEAVY_ATOM>  (165) 
1 0 0 0 1 1 0 0 1 1 0 0 0 1 1 0 1 1 0 1 0

>  <DIFUSE_FUNC_ATOM>  (165) 
n/a

>  <FINAL_SINGLE_POINT_ENERGY>  (165) 
0

>  <NONCOV_INTER_ENERGY_QM>  (165) 
0

>  <FF_Energy>  (165) 
-1.45

>  <QM_Energy>  (165) 
4.0

>  <source>  (165) 
ACEM_MIMD

>  <Index>  (165) 
18936

$$$$
ACEM-pdb4cru-B-GLN-187:MIMD-pdb4cru-B-HID-231
     RDKit          3D

 21 20  0  0  0  0  0  0  0  0999 V2000
   -4.8915    1.8653    2.7208 C   0  0  0  0  0  0  0  0  0  0  0  0
   -5.5148    1.2870    3.1878 H   0  0  0  0  0  0  0  0  0  0  0  0
   -5.3508    2.6501    2.3831 H   0  0  0  0  0  0  0  0  0  0  0  0
   -4.1073    2.1784    3.4101 H   0  0  0  0  0  0  0  0  0  0  0  0
   -4.3269    1.0992    1.5384 C   0  0  0  0  0  0  0  0  0  0  0  0
   -3.3175    1.6552    0.9050 N   0  0  0  0  0  0  0  0  0  0  0  0
   -3.0108    2.4146    1.1672 H   0  0  0  0  0  0  0  0  0  0  0  0
   -2.9641    1.2587    0.2289 H   0  0  0  0  0  0  0  0  0  0  0  0
   -4.8239    0.0297    1.1865 O   0  0  0  0  0  0  0  0  0  0  0  0
   -0.1584    2.6529   -0.0078 C   0  0  0  0  0  0  0  0  0  0  0  0
    0.7150    3.0401   -0.1739 H   0  0  0  0  0  0  0  0  0  0  0  0
   -0.4700    2.9123    0.8737 H   0  0  0  0  0  0  0  0  0  0  0  0
   -0.8577    3.0339   -0.7520 H   0  0  0  0  0  0  0  0  0  0  0  0
   -0.0091    1.1689   -0.0199 C   0  0  0  0  0  0  0  0  0  0  0  0
    1.0908    0.3834   -0.0000 C   0  0  0  0  0  0  0  0  0  0  0  0
    1.9744    0.6745   -0.0025 H   0  0  0  0  0  0  0  0  0  0  0  0
    0.6672   -0.9214    0.0125 N   0  0  0  0  0  0  0  0  0  0  0  0
   -0.6581   -0.9377    0.0074 C   0  0  0  0  0  0  0  0  0  0  0  0
   -1.1920   -1.6993    0.0125 H   0  0  0  0  0  0  0  0  0  0  0  0
   -1.0908    0.3068    0.0000 N   0  0  0  0  0  0  0  0  0  0  0  0
   -2.0488    0.5914    0.0065 H   0  0  0  0  0  0  0  0  0  0  0  0
  1  5  1  0
  5  6  1  0
  5  9  2  0
  1  2  1  0
  1  3  1  0
  1  4  1  0
  6  7  1  0
  6  8  1  0
 10 14  1  0
 14 15  2  0
 15 17  1  0
 17 18  2  0
 18 20  1  0
 20 14  1  0
 10 11  1  0
 10 12  1  0
 10 13  1  0
 15 16  1  0
 18 19  1  0
 20 21  1  0
M  END
>  <PDB_ID>  (166) 
pdb4cru

>  <RESIDUE_NAME>  (166) 
GLN   HID

>  <FRAG_NAME>  (166) 
ACEM   MIMD

>  <FRAG_ATOM_NUM>  (166) 
fragi: 9  fragj: 12

>  <atom.prop.CHAIN_ID>  (166) 
A A A A A A A A A Z Z Z Z Z Z Z Z Z Z Z Z

>  <atom.prop.IS_HEAVY_ATOM>  (166) 
1 0 0 0 1 1 0 0 1 1 0 0 0 1 1 0 1 1 0 1 0

>  <DIFUSE_FUNC_ATOM>  (166) 
n/a

>  <FINAL_SINGLE_POINT_ENERGY>  (166) 
0

>  <NONCOV_INTER_ENERGY_QM>  (166) 
0

>  <FF_Energy>  (166) 
8.79

>  <QM_Energy>  (166) 
18.26

>  <source>  (166) 
ACEM_MIMD

>  <Index>  (166) 
19224

$$$$
ACEM-pdb4d48-B-GLN-109:MIMD-pdb4d48-B-HID-117
     RDKit          3D

 21 20  0  0  0  0  0  0  0  0999 V2000
   -4.8084   -0.6650    0.0235 C   0  0  0  0  0  0  0  0  0  0  0  0
   -4.8794   -1.0581    0.9490 H   0  0  0  0  0  0  0  0  0  0  0  0
   -3.9000   -0.8973   -0.3476 H   0  0  0  0  0  0  0  0  0  0  0  0
   -5.5718   -1.1174   -0.6094 H   0  0  0  0  0  0  0  0  0  0  0  0
   -4.9010    0.8477    0.1432 C   0  0  0  0  0  0  0  0  0  0  0  0
   -3.7923    1.5063    0.4178 N   0  0  0  0  0  0  0  0  0  0  0  0
   -3.7806    2.5152    0.4973 H   0  0  0  0  0  0  0  0  0  0  0  0
   -2.9255    0.9756    0.5526 H   0  0  0  0  0  0  0  0  0  0  0  0
   -5.9836    1.4120   -0.0116 O   0  0  0  0  0  0  0  0  0  0  0  0
   -0.1765    2.6603   -0.0345 C   0  0  0  0  0  0  0  0  0  0  0  0
    0.5471    3.0639    0.5395 H   0  0  0  0  0  0  0  0  0  0  0  0
   -1.0682    2.8872    0.3771 H   0  0  0  0  0  0  0  0  0  0  0  0
   -0.1260    3.1046   -1.0286 H   0  0  0  0  0  0  0  0  0  0  0  0
   -0.0155    1.1681   -0.0124 C   0  0  0  0  0  0  0  0  0  0  0  0
    1.0929    0.3931   -0.0000 C   0  0  0  0  0  0  0  0  0  0  0  0
    2.0373    0.7063    0.0055 H   0  0  0  0  0  0  0  0  0  0  0  0
    0.6685   -0.9159    0.0051 N   0  0  0  0  0  0  0  0  0  0  0  0
   -0.6530   -0.9437    0.0073 C   0  0  0  0  0  0  0  0  0  0  0  0
   -1.2171   -1.7648    0.0148 H   0  0  0  0  0  0  0  0  0  0  0  0
   -1.0929    0.2984    0.0000 N   0  0  0  0  0  0  0  0  0  0  0  0
   -2.0529    0.5782    0.0022 H   0  0  0  0  0  0  0  0  0  0  0  0
  1  5  1  0
  5  6  1  0
  5  9  2  0
  1  2  1  0
  1  3  1  0
  1  4  1  0
  6  7  1  0
  6  8  1  0
 10 14  1  0
 14 15  2  0
 15 17  1  0
 17 18  2  0
 18 20  1  0
 20 14  1  0
 10 11  1  0
 10 12  1  0
 10 13  1  0
 15 16  1  0
 18 19  1  0
 20 21  1  0
M  END
>  <PDB_ID>  (167) 
pdb4d48

>  <RESIDUE_NAME>  (167) 
GLN   HID

>  <FRAG_NAME>  (167) 
ACEM   MIMD

>  <FRAG_ATOM_NUM>  (167) 
fragi: 9  fragj: 12

>  <atom.prop.CHAIN_ID>  (167) 
A A A A A A A A A Z Z Z Z Z Z Z Z Z Z Z Z

>  <atom.prop.IS_HEAVY_ATOM>  (167) 
1 0 0 0 1 1 0 0 1 1 0 0 0 1 1 0 1 1 0 1 0

>  <DIFUSE_FUNC_ATOM>  (167) 
n/a

>  <FINAL_SINGLE_POINT_ENERGY>  (167) 
0

>  <NONCOV_INTER_ENERGY_QM>  (167) 
0

>  <FF_Energy>  (167) 
8.04

>  <QM_Energy>  (167) 
18.06

>  <source>  (167) 
ACEM_MIMD

>  <Index>  (167) 
19473

$$$$
ACEM-pdb4dvk-A-GLN-129:MIMD-pdb4dvk-A-HID-32
     RDKit          3D

 21 20  0  0  0  0  0  0  0  0999 V2000
   -5.6183    1.5984    1.4562 C   0  0  0  0  0  0  0  0  0  0  0  0
   -5.1236    2.3930    1.7998 H   0  0  0  0  0  0  0  0  0  0  0  0
   -6.0109    1.0871    2.2171 H   0  0  0  0  0  0  0  0  0  0  0  0
   -6.4202    1.9323    0.7979 H   0  0  0  0  0  0  0  0  0  0  0  0
   -4.6141    0.6877    0.7374 C   0  0  0  0  0  0  0  0  0  0  0  0
   -3.6117    1.3046    0.1194 N   0  0  0  0  0  0  0  0  0  0  0  0
   -2.8998    0.7663   -0.3674 H   0  0  0  0  0  0  0  0  0  0  0  0
   -3.5707    2.3187    0.1396 H   0  0  0  0  0  0  0  0  0  0  0  0
   -4.7029   -0.5725    0.7615 O   0  0  0  0  0  0  0  0  0  0  0  0
   -0.0884    2.6473   -0.0072 C   0  0  0  0  0  0  0  0  0  0  0  0
   -0.7008    2.9260    0.7438 H   0  0  0  0  0  0  0  0  0  0  0  0
   -0.5110    2.9307   -0.8781 H   0  0  0  0  0  0  0  0  0  0  0  0
    0.8609    3.1712    0.1046 H   0  0  0  0  0  0  0  0  0  0  0  0
    0.0188    1.1517    0.0003 C   0  0  0  0  0  0  0  0  0  0  0  0
    1.1150    0.3539   -0.0000 C   0  0  0  0  0  0  0  0  0  0  0  0
    2.0628    0.6444    0.0061 H   0  0  0  0  0  0  0  0  0  0  0  0
    0.6581   -0.9506   -0.0087 N   0  0  0  0  0  0  0  0  0  0  0  0
   -0.6769   -0.9001    0.0084 C   0  0  0  0  0  0  0  0  0  0  0  0
   -1.2706   -1.7214    0.0267 H   0  0  0  0  0  0  0  0  0  0  0  0
   -1.1150    0.3451   -0.0000 N   0  0  0  0  0  0  0  0  0  0  0  0
   -2.0425    0.6509   -0.0056 H   0  0  0  0  0  0  0  0  0  0  0  0
  1  5  1  0
  5  6  1  0
  5  9  2  0
  1  2  1  0
  1  3  1  0
  1  4  1  0
  6  7  1  0
  6  8  1  0
 10 14  1  0
 14 15  2  0
 15 17  1  0
 17 18  2  0
 18 20  1  0
 20 14  1  0
 10 11  1  0
 10 12  1  0
 10 13  1  0
 15 16  1  0
 18 19  1  0
 20 21  1  0
M  END
>  <PDB_ID>  (168) 
pdb4dvk

>  <RESIDUE_NAME>  (168) 
GLN   HID

>  <FRAG_NAME>  (168) 
ACEM   MIMD

>  <FRAG_ATOM_NUM>  (168) 
fragi: 9  fragj: 12

>  <atom.prop.CHAIN_ID>  (168) 
A A A A A A A A A Z Z Z Z Z Z Z Z Z Z Z Z

>  <atom.prop.IS_HEAVY_ATOM>  (168) 
1 0 0 0 1 1 0 0 1 1 0 0 0 1 1 0 1 1 0 1 0

>  <DIFUSE_FUNC_ATOM>  (168) 
n/a

>  <FINAL_SINGLE_POINT_ENERGY>  (168) 
0

>  <NONCOV_INTER_ENERGY_QM>  (168) 
0

>  <FF_Energy>  (168) 
15.34

>  <QM_Energy>  (168) 
35.38

>  <source>  (168) 
ACEM_MIMD

>  <Index>  (168) 
19922

$$$$
ACEM-pdb4ecm-A-ASN-22:MIMD-pdb4ecm-A-HID-57
     RDKit          3D

 21 20  0  0  0  0  0  0  0  0999 V2000
   -1.6698    0.6228    3.0156 C   0  0  0  0  0  0  0  0  0  0  0  0
   -1.7585    0.7229    2.0317 H   0  0  0  0  0  0  0  0  0  0  0  0
   -2.3809    1.1338    3.4845 H   0  0  0  0  0  0  0  0  0  0  0  0
   -1.7669   -0.4321    3.2722 H   0  0  0  0  0  0  0  0  0  0  0  0
   -0.3084    1.2068    3.4333 C   0  0  0  0  0  0  0  0  0  0  0  0
    0.6178    1.2745    2.4864 N   0  0  0  0  0  0  0  0  0  0  0  0
    0.4074    0.9601    1.5584 H   0  0  0  0  0  0  0  0  0  0  0  0
    1.5244    1.6387    2.6949 H   0  0  0  0  0  0  0  0  0  0  0  0
   -0.1068    1.6055    4.5829 O   0  0  0  0  0  0  0  0  0  0  0  0
   -0.1766    2.6605   -0.0149 C   0  0  0  0  0  0  0  0  0  0  0  0
    0.7367    3.0769   -0.1034 H   0  0  0  0  0  0  0  0  0  0  0  0
   -0.5681    2.9408    0.8701 H   0  0  0  0  0  0  0  0  0  0  0  0
   -0.8133    3.0415   -0.8134 H   0  0  0  0  0  0  0  0  0  0  0  0
   -0.0170    1.1680   -0.0087 C   0  0  0  0  0  0  0  0  0  0  0  0
    1.0912    0.3879   -0.0000 C   0  0  0  0  0  0  0  0  0  0  0  0
    2.0366    0.7025   -0.0007 H   0  0  0  0  0  0  0  0  0  0  0  0
    0.6684   -0.9190    0.0110 N   0  0  0  0  0  0  0  0  0  0  0  0
   -0.6514   -0.9423   -0.0023 C   0  0  0  0  0  0  0  0  0  0  0  0
   -1.2196   -1.7603   -0.0128 H   0  0  0  0  0  0  0  0  0  0  0  0
   -1.0912    0.3054    0.0000 N   0  0  0  0  0  0  0  0  0  0  0  0
   -2.0520    0.5802    0.0074 H   0  0  0  0  0  0  0  0  0  0  0  0
  1  5  1  0
  5  6  1  0
  5  9  2  0
  1  2  1  0
  1  3  1  0
  1  4  1  0
  6  7  1  0
  6  8  1  0
 10 14  1  0
 14 15  2  0
 15 17  1  0
 17 18  2  0
 18 20  1  0
 20 14  1  0
 10 11  1  0
 10 12  1  0
 10 13  1  0
 15 16  1  0
 18 19  1  0
 20 21  1  0
M  END
>  <PDB_ID>  (169) 
pdb4ecm

>  <RESIDUE_NAME>  (169) 
ASN   HID

>  <FRAG_NAME>  (169) 
ACEM   MIMD

>  <FRAG_ATOM_NUM>  (169) 
fragi: 9  fragj: 12

>  <atom.prop.CHAIN_ID>  (169) 
A A A A A A A A A Z Z Z Z Z Z Z Z Z Z Z Z

>  <atom.prop.IS_HEAVY_ATOM>  (169) 
1 0 0 0 1 1 0 0 1 1 0 0 0 1 1 0 1 1 0 1 0

>  <DIFUSE_FUNC_ATOM>  (169) 
n/a

>  <FINAL_SINGLE_POINT_ENERGY>  (169) 
0

>  <NONCOV_INTER_ENERGY_QM>  (169) 
0

>  <FF_Energy>  (169) 
12.26

>  <QM_Energy>  (169) 
18.41

>  <source>  (169) 
ACEM_MIMD

>  <Index>  (169) 
20343

$$$$
ACEM-pdb4eg2-E-GLN-96:MIMD-pdb4eg2-F-HID-273
     RDKit          3D

 21 20  0  0  0  0  0  0  0  0999 V2000
   -4.3238   -0.0264   -1.1001 C   0  0  0  0  0  0  0  0  0  0  0  0
   -4.5834   -0.9636   -0.8730 H   0  0  0  0  0  0  0  0  0  0  0  0
   -3.3390    0.0187   -1.2640 H   0  0  0  0  0  0  0  0  0  0  0  0
   -4.8497    0.2801   -2.0044 H   0  0  0  0  0  0  0  0  0  0  0  0
   -4.6596    0.8619    0.0712 C   0  0  0  0  0  0  0  0  0  0  0  0
   -3.6502    1.5280    0.6097 N   0  0  0  0  0  0  0  0  0  0  0  0
   -3.7991    2.1607    1.3984 H   0  0  0  0  0  0  0  0  0  0  0  0
   -2.7136    1.4022    0.2281 H   0  0  0  0  0  0  0  0  0  0  0  0
   -5.8157    0.9396    0.4949 O   0  0  0  0  0  0  0  0  0  0  0  0
   -0.1720    2.6404   -0.0507 C   0  0  0  0  0  0  0  0  0  0  0  0
    0.7289    3.0592    0.1326 H   0  0  0  0  0  0  0  0  0  0  0  0
   -0.7923    2.9020    0.7023 H   0  0  0  0  0  0  0  0  0  0  0  0
   -0.5641    3.0454   -0.9836 H   0  0  0  0  0  0  0  0  0  0  0  0
   -0.0154    1.1619   -0.0395 C   0  0  0  0  0  0  0  0  0  0  0  0
    1.0898    0.3869    0.0000 C   0  0  0  0  0  0  0  0  0  0  0  0
    2.0355    0.7017    0.0140 H   0  0  0  0  0  0  0  0  0  0  0  0
    0.6663   -0.9153    0.0180 N   0  0  0  0  0  0  0  0  0  0  0  0
   -0.6510   -0.9384    0.0215 C   0  0  0  0  0  0  0  0  0  0  0  0
   -1.2191   -1.7575    0.0388 H   0  0  0  0  0  0  0  0  0  0  0  0
   -1.0898    0.3049    0.0000 N   0  0  0  0  0  0  0  0  0  0  0  0
   -2.0507    0.5824    0.0099 H   0  0  0  0  0  0  0  0  0  0  0  0
  1  5  1  0
  5  6  1  0
  5  9  2  0
  1  2  1  0
  1  3  1  0
  1  4  1  0
  6  7  1  0
  6  8  1  0
 10 14  1  0
 14 15  2  0
 15 17  1  0
 17 18  2  0
 18 20  1  0
 20 14  1  0
 10 11  1  0
 10 12  1  0
 10 13  1  0
 15 16  1  0
 18 19  1  0
 20 21  1  0
M  END
>  <PDB_ID>  (170) 
pdb4eg2

>  <RESIDUE_NAME>  (170) 
GLN   HID

>  <FRAG_NAME>  (170) 
ACEM   MIMD

>  <FRAG_ATOM_NUM>  (170) 
fragi: 9  fragj: 12

>  <atom.prop.CHAIN_ID>  (170) 
A A A A A A A A A Z Z Z Z Z Z Z Z Z Z Z Z

>  <atom.prop.IS_HEAVY_ATOM>  (170) 
1 0 0 0 1 1 0 0 1 1 0 0 0 1 1 0 1 1 0 1 0

>  <DIFUSE_FUNC_ATOM>  (170) 
n/a

>  <FINAL_SINGLE_POINT_ENERGY>  (170) 
0

>  <NONCOV_INTER_ENERGY_QM>  (170) 
0

>  <FF_Energy>  (170) 
9.05

>  <QM_Energy>  (170) 
22.0

>  <source>  (170) 
ACEM_MIMD

>  <Index>  (170) 
20423

$$$$
ACEM-pdb3ht3-D-ASN-709:MIMD-pdb3ht3-D-HID-682
     RDKit          3D

 21 20  0  0  0  0  0  0  0  0999 V2000
   -4.4267   -1.2309   -0.3457 C   0  0  0  0  0  0  0  0  0  0  0  0
   -3.8775   -0.8566    0.3975 H   0  0  0  0  0  0  0  0  0  0  0  0
   -3.9313   -1.9683   -0.7992 H   0  0  0  0  0  0  0  0  0  0  0  0
   -5.3522   -1.6315    0.0679 H   0  0  0  0  0  0  0  0  0  0  0  0
   -4.6605   -0.1141   -1.3721 C   0  0  0  0  0  0  0  0  0  0  0  0
   -3.6758    0.7749   -1.5010 N   0  0  0  0  0  0  0  0  0  0  0  0
   -2.8466    0.6850   -0.9507 H   0  0  0  0  0  0  0  0  0  0  0  0
   -3.7677    1.5307   -2.1486 H   0  0  0  0  0  0  0  0  0  0  0  0
   -5.6754   -0.0681   -2.0558 O   0  0  0  0  0  0  0  0  0  0  0  0
   -0.1820    2.6576   -0.0273 C   0  0  0  0  0  0  0  0  0  0  0  0
    0.7189    3.0776   -0.1342 H   0  0  0  0  0  0  0  0  0  0  0  0
   -0.5835    2.9499    0.8408 H   0  0  0  0  0  0  0  0  0  0  0  0
   -0.8248    2.9930   -0.8412 H   0  0  0  0  0  0  0  0  0  0  0  0
   -0.0153    1.1686    0.0010 C   0  0  0  0  0  0  0  0  0  0  0  0
    1.0908    0.3881    0.0000 C   0  0  0  0  0  0  0  0  0  0  0  0
    2.0372    0.7013    0.0000 H   0  0  0  0  0  0  0  0  0  0  0  0
    0.6688   -0.9204    0.0003 N   0  0  0  0  0  0  0  0  0  0  0  0
   -0.6535   -0.9419   -0.0013 C   0  0  0  0  0  0  0  0  0  0  0  0
   -1.2218   -1.7592   -0.0021 H   0  0  0  0  0  0  0  0  0  0  0  0
   -1.0908    0.3056   -0.0000 N   0  0  0  0  0  0  0  0  0  0  0  0
   -2.0518    0.5834   -0.0007 H   0  0  0  0  0  0  0  0  0  0  0  0
  1  5  1  0
  5  6  1  0
  5  9  2  0
  1  2  1  0
  1  3  1  0
  1  4  1  0
  6  7  1  0
  6  8  1  0
 10 14  1  0
 14 15  2  0
 15 17  1  0
 17 18  2  0
 18 20  1  0
 20 14  1  0
 10 11  1  0
 10 12  1  0
 10 13  1  0
 15 16  1  0
 18 19  1  0
 20 21  1  0
M  END
>  <PDB_ID>  (171) 
pdb3ht3

>  <RESIDUE_NAME>  (171) 
ASN   HID

>  <FRAG_NAME>  (171) 
ACEM   MIMD

>  <FRAG_ATOM_NUM>  (171) 
fragi: 9  fragj: 12

>  <atom.prop.CHAIN_ID>  (171) 
A A A A A A A A A Z Z Z Z Z Z Z Z Z Z Z Z

>  <atom.prop.IS_HEAVY_ATOM>  (171) 
1 0 0 0 1 1 0 0 1 1 0 0 0 1 1 0 1 1 0 1 0

>  <DIFUSE_FUNC_ATOM>  (171) 
n/a

>  <FINAL_SINGLE_POINT_ENERGY>  (171) 
0

>  <NONCOV_INTER_ENERGY_QM>  (171) 
0

>  <FF_Energy>  (171) 
6.56

>  <QM_Energy>  (171) 
12.18

>  <source>  (171) 
ACEM_MIMD

>  <Index>  (171) 
20723

$$$$
ACEM-pdb3hul-A-GLN-227:MIMD-pdb3hul-A-HID-224
     RDKit          3D

 21 20  0  0  0  0  0  0  0  0999 V2000
   -5.5395    3.2177   -0.2459 C   0  0  0  0  0  0  0  0  0  0  0  0
   -5.5596    3.8752    0.5023 H   0  0  0  0  0  0  0  0  0  0  0  0
   -6.4682    2.9869   -0.5241 H   0  0  0  0  0  0  0  0  0  0  0  0
   -5.0225    3.6682   -1.0932 H   0  0  0  0  0  0  0  0  0  0  0  0
   -4.8498    1.9445    0.2475 C   0  0  0  0  0  0  0  0  0  0  0  0
   -3.5259    1.9097    0.1550 N   0  0  0  0  0  0  0  0  0  0  0  0
   -3.0033    1.1049    0.4756 H   0  0  0  0  0  0  0  0  0  0  0  0
   -3.0413    2.7122   -0.2458 H   0  0  0  0  0  0  0  0  0  0  0  0
   -5.5090    1.0011    0.6983 O   0  0  0  0  0  0  0  0  0  0  0  0
   -0.1706    2.6546   -0.0158 C   0  0  0  0  0  0  0  0  0  0  0  0
    0.6504    3.0627    0.3962 H   0  0  0  0  0  0  0  0  0  0  0  0
   -0.9660    2.8931    0.5515 H   0  0  0  0  0  0  0  0  0  0  0  0
   -0.3102    3.0702   -1.0137 H   0  0  0  0  0  0  0  0  0  0  0  0
   -0.0147    1.1675   -0.0064 C   0  0  0  0  0  0  0  0  0  0  0  0
    1.0945    0.3882   -0.0000 C   0  0  0  0  0  0  0  0  0  0  0  0
    2.0385    0.7015    0.0027 H   0  0  0  0  0  0  0  0  0  0  0  0
    0.6689   -0.9188    0.0036 N   0  0  0  0  0  0  0  0  0  0  0  0
   -0.6542   -0.9420    0.0028 C   0  0  0  0  0  0  0  0  0  0  0  0
   -1.2208   -1.7604    0.0053 H   0  0  0  0  0  0  0  0  0  0  0  0
   -1.0945    0.3051    0.0000 N   0  0  0  0  0  0  0  0  0  0  0  0
   -2.0526    0.5831    0.0019 H   0  0  0  0  0  0  0  0  0  0  0  0
  1  5  1  0
  5  6  1  0
  5  9  2  0
  1  2  1  0
  1  3  1  0
  1  4  1  0
  6  7  1  0
  6  8  1  0
 10 14  1  0
 14 15  2  0
 15 17  1  0
 17 18  2  0
 18 20  1  0
 20 14  1  0
 10 11  1  0
 10 12  1  0
 10 13  1  0
 15 16  1  0
 18 19  1  0
 20 21  1  0
M  END
>  <PDB_ID>  (172) 
pdb3hul

>  <RESIDUE_NAME>  (172) 
GLN   HID

>  <FRAG_NAME>  (172) 
ACEM   MIMD

>  <FRAG_ATOM_NUM>  (172) 
fragi: 9  fragj: 12

>  <atom.prop.CHAIN_ID>  (172) 
A A A A A A A A A Z Z Z Z Z Z Z Z Z Z Z Z

>  <atom.prop.IS_HEAVY_ATOM>  (172) 
1 0 0 0 1 1 0 0 1 1 0 0 0 1 1 0 1 1 0 1 0

>  <DIFUSE_FUNC_ATOM>  (172) 
n/a

>  <FINAL_SINGLE_POINT_ENERGY>  (172) 
0

>  <NONCOV_INTER_ENERGY_QM>  (172) 
0

>  <FF_Energy>  (172) 
7.56

>  <QM_Energy>  (172) 
15.19

>  <source>  (172) 
ACEM_MIMD

>  <Index>  (172) 
20731

$$$$
ACEM-pdb3i3v-A-ASN-79:MIMD-pdb3i3v-A-HID-45
     RDKit          3D

 21 20  0  0  0  0  0  0  0  0999 V2000
   -2.7833   -3.4263    2.0773 C   0  0  0  0  0  0  0  0  0  0  0  0
   -2.4832   -2.4784    2.0381 H   0  0  0  0  0  0  0  0  0  0  0  0
   -2.3466   -3.8948    2.8389 H   0  0  0  0  0  0  0  0  0  0  0  0
   -3.8602   -3.4357    2.2454 H   0  0  0  0  0  0  0  0  0  0  0  0
   -2.3820   -4.1186    0.7845 C   0  0  0  0  0  0  0  0  0  0  0  0
   -1.8268   -3.3615   -0.1527 N   0  0  0  0  0  0  0  0  0  0  0  0
   -1.6872   -2.3824    0.0200 H   0  0  0  0  0  0  0  0  0  0  0  0
   -1.5477   -3.7593   -1.0230 H   0  0  0  0  0  0  0  0  0  0  0  0
   -2.5686   -5.3248    0.6345 O   0  0  0  0  0  0  0  0  0  0  0  0
   -0.1814    2.6519   -0.0392 C   0  0  0  0  0  0  0  0  0  0  0  0
    0.3467    3.0104   -0.8196 H   0  0  0  0  0  0  0  0  0  0  0  0
    0.2105    3.0323    0.8082 H   0  0  0  0  0  0  0  0  0  0  0  0
   -1.2160    2.9827   -0.1297 H   0  0  0  0  0  0  0  0  0  0  0  0
   -0.0173    1.1658   -0.0054 C   0  0  0  0  0  0  0  0  0  0  0  0
    1.0909    0.3897    0.0000 C   0  0  0  0  0  0  0  0  0  0  0  0
    2.0360    0.7043    0.0017 H   0  0  0  0  0  0  0  0  0  0  0  0
    0.6681   -0.9174    0.0019 N   0  0  0  0  0  0  0  0  0  0  0  0
   -0.6508   -0.9428    0.0035 C   0  0  0  0  0  0  0  0  0  0  0  0
   -1.2187   -1.7607    0.0073 H   0  0  0  0  0  0  0  0  0  0  0  0
   -1.0909    0.3047   -0.0000 N   0  0  0  0  0  0  0  0  0  0  0  0
   -2.0526    0.5790    0.0008 H   0  0  0  0  0  0  0  0  0  0  0  0
  1  5  1  0
  5  6  1  0
  5  9  2  0
  1  2  1  0
  1  3  1  0
  1  4  1  0
  6  7  1  0
  6  8  1  0
 10 14  1  0
 14 15  2  0
 15 17  1  0
 17 18  2  0
 18 20  1  0
 20 14  1  0
 10 11  1  0
 10 12  1  0
 10 13  1  0
 15 16  1  0
 18 19  1  0
 20 21  1  0
M  END
>  <PDB_ID>  (173) 
pdb3i3v

>  <RESIDUE_NAME>  (173) 
ASN   HID

>  <FRAG_NAME>  (173) 
ACEM   MIMD

>  <FRAG_ATOM_NUM>  (173) 
fragi: 9  fragj: 12

>  <atom.prop.CHAIN_ID>  (173) 
A A A A A A A A A Z Z Z Z Z Z Z Z Z Z Z Z

>  <atom.prop.IS_HEAVY_ATOM>  (173) 
1 0 0 0 1 1 0 0 1 1 0 0 0 1 1 0 1 1 0 1 0

>  <DIFUSE_FUNC_ATOM>  (173) 
n/a

>  <FINAL_SINGLE_POINT_ENERGY>  (173) 
0

>  <NONCOV_INTER_ENERGY_QM>  (173) 
0

>  <FF_Energy>  (173) 
36.85

>  <QM_Energy>  (173) 
58.99

>  <source>  (173) 
ACEM_MIMD

>  <Index>  (173) 
20997

$$$$
ACEM-pdb4faz-A-GLN-4:MIMD-pdb4faz-A-HID-43
     RDKit          3D

 21 20  0  0  0  0  0  0  0  0999 V2000
   -4.0791   -1.8057   -0.1741 C   0  0  0  0  0  0  0  0  0  0  0  0
   -3.9811   -0.9400   -0.6413 H   0  0  0  0  0  0  0  0  0  0  0  0
   -3.5262   -1.8384    0.6442 H   0  0  0  0  0  0  0  0  0  0  0  0
   -5.1235   -2.0390    0.0331 H   0  0  0  0  0  0  0  0  0  0  0  0
   -3.4892   -2.8946   -1.1444 C   0  0  0  0  0  0  0  0  0  0  0  0
   -2.1912   -3.1644   -1.0166 N   0  0  0  0  0  0  0  0  0  0  0  0
   -1.7610   -3.8580   -1.5955 H   0  0  0  0  0  0  0  0  0  0  0  0
   -1.6552   -2.6507   -0.3212 H   0  0  0  0  0  0  0  0  0  0  0  0
   -4.2094   -3.4713   -1.9712 O   0  0  0  0  0  0  0  0  0  0  0  0
   -0.1695    2.6442    0.0129 C   0  0  0  0  0  0  0  0  0  0  0  0
   -1.0686    2.8789   -0.3797 H   0  0  0  0  0  0  0  0  0  0  0  0
    0.5420    3.0642   -0.5661 H   0  0  0  0  0  0  0  0  0  0  0  0
   -0.1043    3.0835    1.0083 H   0  0  0  0  0  0  0  0  0  0  0  0
   -0.0034    1.1840   -0.0060 C   0  0  0  0  0  0  0  0  0  0  0  0
    1.1026    0.4150   -0.0000 C   0  0  0  0  0  0  0  0  0  0  0  0
    2.0455    0.6960   -0.0054 H   0  0  0  0  0  0  0  0  0  0  0  0
    0.6594   -0.9449    0.0171 N   0  0  0  0  0  0  0  0  0  0  0  0
   -0.6561   -0.9673   -0.0111 C   0  0  0  0  0  0  0  0  0  0  0  0
   -1.2376   -1.7677   -0.0349 H   0  0  0  0  0  0  0  0  0  0  0  0
   -1.1026    0.3133    0.0000 N   0  0  0  0  0  0  0  0  0  0  0  0
   -2.0517    0.5857    0.0100 H   0  0  0  0  0  0  0  0  0  0  0  0
  1  5  1  0
  5  6  1  0
  5  9  2  0
  1  2  1  0
  1  3  1  0
  1  4  1  0
  6  7  1  0
  6  8  1  0
 10 14  1  0
 14 15  2  0
 15 17  1  0
 17 18  2  0
 18 20  1  0
 20 14  1  0
 10 11  1  0
 10 12  1  0
 10 13  1  0
 15 16  1  0
 18 19  1  0
 20 21  1  0
M  END
>  <PDB_ID>  (174) 
pdb4faz

>  <RESIDUE_NAME>  (174) 
GLN   HID

>  <FRAG_NAME>  (174) 
ACEM   MIMD

>  <FRAG_ATOM_NUM>  (174) 
fragi: 9  fragj: 12

>  <atom.prop.CHAIN_ID>  (174) 
A A A A A A A A A Z Z Z Z Z Z Z Z Z Z Z Z

>  <atom.prop.IS_HEAVY_ATOM>  (174) 
1 0 0 0 1 1 0 0 1 1 0 0 0 1 1 0 1 1 0 1 0

>  <DIFUSE_FUNC_ATOM>  (174) 
n/a

>  <FINAL_SINGLE_POINT_ENERGY>  (174) 
0

>  <NONCOV_INTER_ENERGY_QM>  (174) 
0

>  <FF_Energy>  (174) 
8.08

>  <QM_Energy>  (174) 
24.99

>  <source>  (174) 
ACEM_MIMD

>  <Index>  (174) 
21141

$$$$
ACEM-pdb3ial-A-ASN-195:MIMD-pdb3ial-A-HID-170
     RDKit          3D

 21 20  0  0  0  0  0  0  0  0999 V2000
   -5.8513    2.2721   -1.9696 C   0  0  0  0  0  0  0  0  0  0  0  0
   -6.3360    1.4376   -1.7260 H   0  0  0  0  0  0  0  0  0  0  0  0
   -5.9539    2.4576   -2.9431 H   0  0  0  0  0  0  0  0  0  0  0  0
   -6.2878    3.1008   -1.4121 H   0  0  0  0  0  0  0  0  0  0  0  0
   -4.3767    2.0804   -1.6665 C   0  0  0  0  0  0  0  0  0  0  0  0
   -4.0529    1.0404   -0.9070 N   0  0  0  0  0  0  0  0  0  0  0  0
   -4.7731    0.4279   -0.5721 H   0  0  0  0  0  0  0  0  0  0  0  0
   -3.1001    0.8670   -0.6703 H   0  0  0  0  0  0  0  0  0  0  0  0
   -3.5428    2.8601   -2.1114 O   0  0  0  0  0  0  0  0  0  0  0  0
   -0.1680    2.6541    0.0080 C   0  0  0  0  0  0  0  0  0  0  0  0
   -1.0801    2.8821   -0.3482 H   0  0  0  0  0  0  0  0  0  0  0  0
    0.5224    3.0500   -0.6060 H   0  0  0  0  0  0  0  0  0  0  0  0
   -0.0551    3.1000    0.9962 H   0  0  0  0  0  0  0  0  0  0  0  0
   -0.0136    1.1673   -0.0027 C   0  0  0  0  0  0  0  0  0  0  0  0
    1.0921    0.3869   -0.0000 C   0  0  0  0  0  0  0  0  0  0  0  0
    2.0386    0.6995   -0.0008 H   0  0  0  0  0  0  0  0  0  0  0  0
    0.6679   -0.9189    0.0058 N   0  0  0  0  0  0  0  0  0  0  0  0
   -0.6542   -0.9413   -0.0031 C   0  0  0  0  0  0  0  0  0  0  0  0
   -1.2215   -1.7584   -0.0095 H   0  0  0  0  0  0  0  0  0  0  0  0
   -1.0921    0.3060    0.0000 N   0  0  0  0  0  0  0  0  0  0  0  0
   -2.0513    0.5847    0.0027 H   0  0  0  0  0  0  0  0  0  0  0  0
  1  5  1  0
  5  6  1  0
  5  9  2  0
  1  2  1  0
  1  3  1  0
  1  4  1  0
  6  7  1  0
  6  8  1  0
 10 14  1  0
 14 15  2  0
 15 17  1  0
 17 18  2  0
 18 20  1  0
 20 14  1  0
 10 11  1  0
 10 12  1  0
 10 13  1  0
 15 16  1  0
 18 19  1  0
 20 21  1  0
M  END
>  <PDB_ID>  (175) 
pdb3ial

>  <RESIDUE_NAME>  (175) 
ASN   HID

>  <FRAG_NAME>  (175) 
ACEM   MIMD

>  <FRAG_ATOM_NUM>  (175) 
fragi: 9  fragj: 12

>  <atom.prop.CHAIN_ID>  (175) 
A A A A A A A A A Z Z Z Z Z Z Z Z Z Z Z Z

>  <atom.prop.IS_HEAVY_ATOM>  (175) 
1 0 0 0 1 1 0 0 1 1 0 0 0 1 1 0 1 1 0 1 0

>  <DIFUSE_FUNC_ATOM>  (175) 
n/a

>  <FINAL_SINGLE_POINT_ENERGY>  (175) 
0

>  <NONCOV_INTER_ENERGY_QM>  (175) 
0

>  <FF_Energy>  (175) 
4.08

>  <QM_Energy>  (175) 
9.84

>  <source>  (175) 
ACEM_MIMD

>  <Index>  (175) 
21174

$$$$
ACEM-pdb3ial-B-ASN-195:MIMD-pdb3ial-B-HID-170
     RDKit          3D

 21 20  0  0  0  0  0  0  0  0999 V2000
   -5.7501    2.1298   -2.1766 C   0  0  0  0  0  0  0  0  0  0  0  0
   -6.2153    1.2942   -1.8991 H   0  0  0  0  0  0  0  0  0  0  0  0
   -5.8367    2.2608   -3.1602 H   0  0  0  0  0  0  0  0  0  0  0  0
   -6.2192    2.9735   -1.6706 H   0  0  0  0  0  0  0  0  0  0  0  0
   -4.2612    1.9821   -1.8430 C   0  0  0  0  0  0  0  0  0  0  0  0
   -3.9204    0.9688   -1.0475 N   0  0  0  0  0  0  0  0  0  0  0  0
   -4.6345    0.3508   -0.7096 H   0  0  0  0  0  0  0  0  0  0  0  0
   -2.9694    0.8272   -0.7929 H   0  0  0  0  0  0  0  0  0  0  0  0
   -3.4353    2.7490   -2.3256 O   0  0  0  0  0  0  0  0  0  0  0  0
   -0.1695    2.6473    0.0038 C   0  0  0  0  0  0  0  0  0  0  0  0
   -1.0602    2.8774   -0.4044 H   0  0  0  0  0  0  0  0  0  0  0  0
    0.5555    3.0483   -0.5688 H   0  0  0  0  0  0  0  0  0  0  0  0
   -0.1145    3.0872    0.9996 H   0  0  0  0  0  0  0  0  0  0  0  0
   -0.0135    1.1659   -0.0066 C   0  0  0  0  0  0  0  0  0  0  0  0
    1.0915    0.3881    0.0000 C   0  0  0  0  0  0  0  0  0  0  0  0
    2.0380    0.6998    0.0004 H   0  0  0  0  0  0  0  0  0  0  0  0
    0.6667   -0.9192    0.0081 N   0  0  0  0  0  0  0  0  0  0  0  0
   -0.6532   -0.9403   -0.0016 C   0  0  0  0  0  0  0  0  0  0  0  0
   -1.2225   -1.7588   -0.0075 H   0  0  0  0  0  0  0  0  0  0  0  0
   -1.0915    0.3054    0.0000 N   0  0  0  0  0  0  0  0  0  0  0  0
   -2.0507    0.5848    0.0043 H   0  0  0  0  0  0  0  0  0  0  0  0
  1  5  1  0
  5  6  1  0
  5  9  2  0
  1  2  1  0
  1  3  1  0
  1  4  1  0
  6  7  1  0
  6  8  1  0
 10 14  1  0
 14 15  2  0
 15 17  1  0
 17 18  2  0
 18 20  1  0
 20 14  1  0
 10 11  1  0
 10 12  1  0
 10 13  1  0
 15 16  1  0
 18 19  1  0
 20 21  1  0
M  END
>  <PDB_ID>  (176) 
pdb3ial

>  <RESIDUE_NAME>  (176) 
ASN   HID

>  <FRAG_NAME>  (176) 
ACEM   MIMD

>  <FRAG_ATOM_NUM>  (176) 
fragi: 9  fragj: 12

>  <atom.prop.CHAIN_ID>  (176) 
A A A A A A A A A Z Z Z Z Z Z Z Z Z Z Z Z

>  <atom.prop.IS_HEAVY_ATOM>  (176) 
1 0 0 0 1 1 0 0 1 1 0 0 0 1 1 0 1 1 0 1 0

>  <DIFUSE_FUNC_ATOM>  (176) 
n/a

>  <FINAL_SINGLE_POINT_ENERGY>  (176) 
0

>  <NONCOV_INTER_ENERGY_QM>  (176) 
0

>  <FF_Energy>  (176) 
4.57

>  <QM_Energy>  (176) 
11.27

>  <source>  (176) 
ACEM_MIMD

>  <Index>  (176) 
21175

$$$$
ACEM-pdb4ffg-A-GLN-66:MIMD-pdb4ffg-A-HID-83
     RDKit          3D

 21 20  0  0  0  0  0  0  0  0999 V2000
   -0.9677   -4.5659   -1.6119 C   0  0  0  0  0  0  0  0  0  0  0  0
   -1.3430   -5.4697   -1.8225 H   0  0  0  0  0  0  0  0  0  0  0  0
   -0.2334   -4.3526   -2.2578 H   0  0  0  0  0  0  0  0  0  0  0  0
   -1.7592   -3.8257   -1.7301 H   0  0  0  0  0  0  0  0  0  0  0  0
   -0.3907   -4.5947   -0.2111 C   0  0  0  0  0  0  0  0  0  0  0  0
   -0.3466   -3.4361    0.4337 N   0  0  0  0  0  0  0  0  0  0  0  0
    0.0149   -3.3789    1.3836 H   0  0  0  0  0  0  0  0  0  0  0  0
   -0.6811   -2.5966   -0.0380 H   0  0  0  0  0  0  0  0  0  0  0  0
    0.0015   -5.6453    0.2909 O   0  0  0  0  0  0  0  0  0  0  0  0
   -0.1852    2.6528    0.0039 C   0  0  0  0  0  0  0  0  0  0  0  0
   -0.0845    2.9879   -0.9421 H   0  0  0  0  0  0  0  0  0  0  0  0
    0.5567    3.0529    0.5586 H   0  0  0  0  0  0  0  0  0  0  0  0
   -1.1414    2.9966    0.3985 H   0  0  0  0  0  0  0  0  0  0  0  0
   -0.0184    1.1662   -0.0032 C   0  0  0  0  0  0  0  0  0  0  0  0
    1.0904    0.3904    0.0000 C   0  0  0  0  0  0  0  0  0  0  0  0
    2.0349    0.7058    0.0020 H   0  0  0  0  0  0  0  0  0  0  0  0
    0.6688   -0.9161    0.0016 N   0  0  0  0  0  0  0  0  0  0  0  0
   -0.6505   -0.9425    0.0017 C   0  0  0  0  0  0  0  0  0  0  0  0
   -1.2169   -1.7622    0.0032 H   0  0  0  0  0  0  0  0  0  0  0  0
   -1.0904    0.3020   -0.0000 N   0  0  0  0  0  0  0  0  0  0  0  0
   -2.0523    0.5767    0.0001 H   0  0  0  0  0  0  0  0  0  0  0  0
  1  5  1  0
  5  6  1  0
  5  9  2  0
  1  2  1  0
  1  3  1  0
  1  4  1  0
  6  7  1  0
  6  8  1  0
 10 14  1  0
 14 15  2  0
 15 17  1  0
 17 18  2  0
 18 20  1  0
 20 14  1  0
 10 11  1  0
 10 12  1  0
 10 13  1  0
 15 16  1  0
 18 19  1  0
 20 21  1  0
M  END
>  <PDB_ID>  (177) 
pdb4ffg

>  <RESIDUE_NAME>  (177) 
GLN   HID

>  <FRAG_NAME>  (177) 
ACEM   MIMD

>  <FRAG_ATOM_NUM>  (177) 
fragi: 9  fragj: 12

>  <atom.prop.CHAIN_ID>  (177) 
A A A A A A A A A Z Z Z Z Z Z Z Z Z Z Z Z

>  <atom.prop.IS_HEAVY_ATOM>  (177) 
1 0 0 0 1 1 0 0 1 1 0 0 0 1 1 0 1 1 0 1 0

>  <DIFUSE_FUNC_ATOM>  (177) 
n/a

>  <FINAL_SINGLE_POINT_ENERGY>  (177) 
0

>  <NONCOV_INTER_ENERGY_QM>  (177) 
0

>  <FF_Energy>  (177) 
17.35

>  <QM_Energy>  (177) 
35.71

>  <source>  (177) 
ACEM_MIMD

>  <Index>  (177) 
21274

$$$$
ACEM-pdb4ffg-C-GLN-66:MIMD-pdb4ffg-C-HID-83
     RDKit          3D

 21 20  0  0  0  0  0  0  0  0999 V2000
   -0.4664   -4.5174   -2.2697 C   0  0  0  0  0  0  0  0  0  0  0  0
   -0.8080   -5.3655   -2.6780 H   0  0  0  0  0  0  0  0  0  0  0  0
    0.4308   -4.3017   -2.6593 H   0  0  0  0  0  0  0  0  0  0  0  0
   -1.1559   -3.7105   -2.5181 H   0  0  0  0  0  0  0  0  0  0  0  0
   -0.3137   -4.7219   -0.7821 C   0  0  0  0  0  0  0  0  0  0  0  0
   -0.3478   -3.6322   -0.0343 N   0  0  0  0  0  0  0  0  0  0  0  0
   -0.2656   -3.6880    0.9834 H   0  0  0  0  0  0  0  0  0  0  0  0
   -0.4587   -2.7244   -0.4858 H   0  0  0  0  0  0  0  0  0  0  0  0
   -0.1815   -5.8474   -0.3076 O   0  0  0  0  0  0  0  0  0  0  0  0
   -0.1892    2.6541    0.0152 C   0  0  0  0  0  0  0  0  0  0  0  0
    0.0580    3.0116   -0.8970 H   0  0  0  0  0  0  0  0  0  0  0  0
    0.4600    3.0400    0.6854 H   0  0  0  0  0  0  0  0  0  0  0  0
   -1.1944    2.9937    0.2650 H   0  0  0  0  0  0  0  0  0  0  0  0
   -0.0165    1.1665   -0.0018 C   0  0  0  0  0  0  0  0  0  0  0  0
    1.0910    0.3903   -0.0000 C   0  0  0  0  0  0  0  0  0  0  0  0
    2.0356    0.7049    0.0018 H   0  0  0  0  0  0  0  0  0  0  0  0
    0.6679   -0.9163    0.0010 N   0  0  0  0  0  0  0  0  0  0  0  0
   -0.6514   -0.9425    0.0008 C   0  0  0  0  0  0  0  0  0  0  0  0
   -1.2180   -1.7610    0.0032 H   0  0  0  0  0  0  0  0  0  0  0  0
   -1.0910    0.3020   -0.0000 N   0  0  0  0  0  0  0  0  0  0  0  0
   -2.0522    0.5791   -0.0001 H   0  0  0  0  0  0  0  0  0  0  0  0
  1  5  1  0
  5  6  1  0
  5  9  2  0
  1  2  1  0
  1  3  1  0
  1  4  1  0
  6  7  1  0
  6  8  1  0
 10 14  1  0
 14 15  2  0
 15 17  1  0
 17 18  2  0
 18 20  1  0
 20 14  1  0
 10 11  1  0
 10 12  1  0
 10 13  1  0
 15 16  1  0
 18 19  1  0
 20 21  1  0
M  END
>  <PDB_ID>  (178) 
pdb4ffg

>  <RESIDUE_NAME>  (178) 
GLN   HID

>  <FRAG_NAME>  (178) 
ACEM   MIMD

>  <FRAG_ATOM_NUM>  (178) 
fragi: 9  fragj: 12

>  <atom.prop.CHAIN_ID>  (178) 
A A A A A A A A A Z Z Z Z Z Z Z Z Z Z Z Z

>  <atom.prop.IS_HEAVY_ATOM>  (178) 
1 0 0 0 1 1 0 0 1 1 0 0 0 1 1 0 1 1 0 1 0

>  <DIFUSE_FUNC_ATOM>  (178) 
n/a

>  <FINAL_SINGLE_POINT_ENERGY>  (178) 
0

>  <NONCOV_INTER_ENERGY_QM>  (178) 
0

>  <FF_Energy>  (178) 
4.43

>  <QM_Energy>  (178) 
12.58

>  <source>  (178) 
ACEM_MIMD

>  <Index>  (178) 
21278

$$$$
ACEM-pdb3iie-A-GLN-270:MIMD-pdb3iie-A-HID-257
     RDKit          3D

 21 20  0  0  0  0  0  0  0  0999 V2000
   -5.5158    2.6407    1.9314 C   0  0  0  0  0  0  0  0  0  0  0  0
   -5.9730    2.1427    2.6651 H   0  0  0  0  0  0  0  0  0  0  0  0
   -6.1947    3.0194    1.3049 H   0  0  0  0  0  0  0  0  0  0  0  0
   -4.9231    3.4503    2.3573 H   0  0  0  0  0  0  0  0  0  0  0  0
   -4.6514    1.6587    1.1592 C   0  0  0  0  0  0  0  0  0  0  0  0
   -3.4102    2.0151    0.9124 N   0  0  0  0  0  0  0  0  0  0  0  0
   -2.7696    1.4032    0.4138 H   0  0  0  0  0  0  0  0  0  0  0  0
   -3.0847    2.9327    1.2332 H   0  0  0  0  0  0  0  0  0  0  0  0
   -5.0981    0.5938    0.7892 O   0  0  0  0  0  0  0  0  0  0  0  0
   -0.1734    2.6483   -0.0298 C   0  0  0  0  0  0  0  0  0  0  0  0
   -1.0856    2.8780    0.3183 H   0  0  0  0  0  0  0  0  0  0  0  0
   -0.1023    2.9530   -0.9831 H   0  0  0  0  0  0  0  0  0  0  0  0
    0.5821    3.1558    0.5700 H   0  0  0  0  0  0  0  0  0  0  0  0
   -0.0212    1.1649   -0.0011 C   0  0  0  0  0  0  0  0  0  0  0  0
    1.0882    0.3903   -0.0000 C   0  0  0  0  0  0  0  0  0  0  0  0
    2.0327    0.7076    0.0052 H   0  0  0  0  0  0  0  0  0  0  0  0
    0.6687   -0.9165   -0.0053 N   0  0  0  0  0  0  0  0  0  0  0  0
   -0.6474   -0.9420    0.0065 C   0  0  0  0  0  0  0  0  0  0  0  0
   -1.2152   -1.7609    0.0197 H   0  0  0  0  0  0  0  0  0  0  0  0
   -1.0882    0.3032   -0.0000 N   0  0  0  0  0  0  0  0  0  0  0  0
   -2.0522    0.5754   -0.0045 H   0  0  0  0  0  0  0  0  0  0  0  0
  1  5  1  0
  5  6  1  0
  5  9  2  0
  1  2  1  0
  1  3  1  0
  1  4  1  0
  6  7  1  0
  6  8  1  0
 10 14  1  0
 14 15  2  0
 15 17  1  0
 17 18  2  0
 18 20  1  0
 20 14  1  0
 10 11  1  0
 10 12  1  0
 10 13  1  0
 15 16  1  0
 18 19  1  0
 20 21  1  0
M  END
>  <PDB_ID>  (179) 
pdb3iie

>  <RESIDUE_NAME>  (179) 
GLN   HID

>  <FRAG_NAME>  (179) 
ACEM   MIMD

>  <FRAG_ATOM_NUM>  (179) 
fragi: 9  fragj: 12

>  <atom.prop.CHAIN_ID>  (179) 
A A A A A A A A A Z Z Z Z Z Z Z Z Z Z Z Z

>  <atom.prop.IS_HEAVY_ATOM>  (179) 
1 0 0 0 1 1 0 0 1 1 0 0 0 1 1 0 1 1 0 1 0

>  <DIFUSE_FUNC_ATOM>  (179) 
n/a

>  <FINAL_SINGLE_POINT_ENERGY>  (179) 
0

>  <NONCOV_INTER_ENERGY_QM>  (179) 
0

>  <FF_Energy>  (179) 
6.72

>  <QM_Energy>  (179) 
15.23

>  <source>  (179) 
ACEM_MIMD

>  <Index>  (179) 
21417

$$$$
ACEM-pdb3ism-A-ASN-207:MIMD-pdb3ism-A-HID-110
     RDKit          3D

 21 20  0  0  0  0  0  0  0  0999 V2000
   -3.3765   -3.0777   -0.5685 C   0  0  0  0  0  0  0  0  0  0  0  0
   -3.9595   -3.3821   -1.3171 H   0  0  0  0  0  0  0  0  0  0  0  0
   -3.0475   -2.1537   -0.7462 H   0  0  0  0  0  0  0  0  0  0  0  0
   -3.9670   -3.0652    0.3476 H   0  0  0  0  0  0  0  0  0  0  0  0
   -2.1774   -4.0075   -0.4835 C   0  0  0  0  0  0  0  0  0  0  0  0
   -1.0323   -3.4759   -0.0615 N   0  0  0  0  0  0  0  0  0  0  0  0
   -1.0027   -2.5038    0.1849 H   0  0  0  0  0  0  0  0  0  0  0  0
   -0.2131   -4.0363    0.0085 H   0  0  0  0  0  0  0  0  0  0  0  0
   -2.2805   -5.1848   -0.8078 O   0  0  0  0  0  0  0  0  0  0  0  0
   -0.1812    2.6705   -0.0239 C   0  0  0  0  0  0  0  0  0  0  0  0
   -0.4937    2.9408   -0.9401 H   0  0  0  0  0  0  0  0  0  0  0  0
    0.7194    3.0850    0.1433 H   0  0  0  0  0  0  0  0  0  0  0  0
   -0.8864    3.0489    0.7161 H   0  0  0  0  0  0  0  0  0  0  0  0
   -0.0189    1.1711   -0.0059 C   0  0  0  0  0  0  0  0  0  0  0  0
    1.0925    0.3893    0.0000 C   0  0  0  0  0  0  0  0  0  0  0  0
    2.0364    0.7048    0.0036 H   0  0  0  0  0  0  0  0  0  0  0  0
    0.6705   -0.9220    0.0010 N   0  0  0  0  0  0  0  0  0  0  0  0
   -0.6516   -0.9452    0.0049 C   0  0  0  0  0  0  0  0  0  0  0  0
   -1.2200   -1.7610    0.0122 H   0  0  0  0  0  0  0  0  0  0  0  0
   -1.0925    0.3068   -0.0000 N   0  0  0  0  0  0  0  0  0  0  0  0
   -2.0539    0.5796    0.0007 H   0  0  0  0  0  0  0  0  0  0  0  0
  1  5  1  0
  5  6  1  0
  5  9  2  0
  1  2  1  0
  1  3  1  0
  1  4  1  0
  6  7  1  0
  6  8  1  0
 10 14  1  0
 14 15  2  0
 15 17  1  0
 17 18  2  0
 18 20  1  0
 20 14  1  0
 10 11  1  0
 10 12  1  0
 10 13  1  0
 15 16  1  0
 18 19  1  0
 20 21  1  0
M  END
>  <PDB_ID>  (180) 
pdb3ism

>  <RESIDUE_NAME>  (180) 
ASN   HID

>  <FRAG_NAME>  (180) 
ACEM   MIMD

>  <FRAG_ATOM_NUM>  (180) 
fragi: 9  fragj: 12

>  <atom.prop.CHAIN_ID>  (180) 
A A A A A A A A A Z Z Z Z Z Z Z Z Z Z Z Z

>  <atom.prop.IS_HEAVY_ATOM>  (180) 
1 0 0 0 1 1 0 0 1 1 0 0 0 1 1 0 1 1 0 1 0

>  <DIFUSE_FUNC_ATOM>  (180) 
n/a

>  <FINAL_SINGLE_POINT_ENERGY>  (180) 
0

>  <NONCOV_INTER_ENERGY_QM>  (180) 
0

>  <FF_Energy>  (180) 
36.68

>  <QM_Energy>  (180) 
60.68

>  <source>  (180) 
ACEM_MIMD

>  <Index>  (180) 
21618

$$$$
ACEM-pdb3ism-B-ASN-207:MIMD-pdb3ism-B-HID-110
     RDKit          3D

 21 20  0  0  0  0  0  0  0  0999 V2000
   -3.2674   -3.1816   -0.5386 C   0  0  0  0  0  0  0  0  0  0  0  0
   -3.8507   -3.5304   -1.2639 H   0  0  0  0  0  0  0  0  0  0  0  0
   -2.9137   -2.2836   -0.7783 H   0  0  0  0  0  0  0  0  0  0  0  0
   -3.8615   -3.0884    0.3705 H   0  0  0  0  0  0  0  0  0  0  0  0
   -2.0847   -4.1367   -0.3710 C   0  0  0  0  0  0  0  0  0  0  0  0
   -0.9516   -3.6198    0.1295 N   0  0  0  0  0  0  0  0  0  0  0  0
   -0.9327   -2.6479    0.3733 H   0  0  0  0  0  0  0  0  0  0  0  0
   -0.1534   -4.1936    0.2538 H   0  0  0  0  0  0  0  0  0  0  0  0
   -2.1886   -5.3171   -0.6989 O   0  0  0  0  0  0  0  0  0  0  0  0
   -0.1814    2.6628   -0.0242 C   0  0  0  0  0  0  0  0  0  0  0  0
   -0.5222    2.9283   -0.9307 H   0  0  0  0  0  0  0  0  0  0  0  0
    0.7204    3.0815    0.1163 H   0  0  0  0  0  0  0  0  0  0  0  0
   -0.8661    3.0426    0.7341 H   0  0  0  0  0  0  0  0  0  0  0  0
   -0.0181    1.1692    0.0016 C   0  0  0  0  0  0  0  0  0  0  0  0
    1.0910    0.3894   -0.0000 C   0  0  0  0  0  0  0  0  0  0  0  0
    2.0357    0.7037    0.0018 H   0  0  0  0  0  0  0  0  0  0  0  0
    0.6701   -0.9209   -0.0036 N   0  0  0  0  0  0  0  0  0  0  0  0
   -0.6520   -0.9440    0.0019 C   0  0  0  0  0  0  0  0  0  0  0  0
   -1.2212   -1.7596    0.0079 H   0  0  0  0  0  0  0  0  0  0  0  0
   -1.0910    0.3064    0.0000 N   0  0  0  0  0  0  0  0  0  0  0  0
   -2.0529    0.5805   -0.0023 H   0  0  0  0  0  0  0  0  0  0  0  0
  1  5  1  0
  5  6  1  0
  5  9  2  0
  1  2  1  0
  1  3  1  0
  1  4  1  0
  6  7  1  0
  6  8  1  0
 10 14  1  0
 14 15  2  0
 15 17  1  0
 17 18  2  0
 18 20  1  0
 20 14  1  0
 10 11  1  0
 10 12  1  0
 10 13  1  0
 15 16  1  0
 18 19  1  0
 20 21  1  0
M  END
>  <PDB_ID>  (181) 
pdb3ism

>  <RESIDUE_NAME>  (181) 
ASN   HID

>  <FRAG_NAME>  (181) 
ACEM   MIMD

>  <FRAG_ATOM_NUM>  (181) 
fragi: 9  fragj: 12

>  <atom.prop.CHAIN_ID>  (181) 
A A A A A A A A A Z Z Z Z Z Z Z Z Z Z Z Z

>  <atom.prop.IS_HEAVY_ATOM>  (181) 
1 0 0 0 1 1 0 0 1 1 0 0 0 1 1 0 1 1 0 1 0

>  <DIFUSE_FUNC_ATOM>  (181) 
n/a

>  <FINAL_SINGLE_POINT_ENERGY>  (181) 
0

>  <NONCOV_INTER_ENERGY_QM>  (181) 
0

>  <FF_Energy>  (181) 
12.74

>  <QM_Energy>  (181) 
29.78

>  <source>  (181) 
ACEM_MIMD

>  <Index>  (181) 
21620

$$$$
ACEM-pdb3iv7-A-ASN-252:MIMD-pdb3iv7-A-HID-70
     RDKit          3D

 21 20  0  0  0  0  0  0  0  0999 V2000
   -1.7382   -4.8659   -3.3215 C   0  0  0  0  0  0  0  0  0  0  0  0
   -1.9946   -4.2238   -4.0307 H   0  0  0  0  0  0  0  0  0  0  0  0
   -2.2231   -5.7236   -3.4242 H   0  0  0  0  0  0  0  0  0  0  0  0
   -0.6663   -5.0541   -3.3829 H   0  0  0  0  0  0  0  0  0  0  0  0
   -2.1526   -4.2492   -1.9535 C   0  0  0  0  0  0  0  0  0  0  0  0
   -1.2715   -3.4501   -1.3801 N   0  0  0  0  0  0  0  0  0  0  0  0
   -0.3936   -3.2656   -1.8317 H   0  0  0  0  0  0  0  0  0  0  0  0
   -1.4723   -3.0248   -0.4970 H   0  0  0  0  0  0  0  0  0  0  0  0
   -3.2538   -4.4957   -1.4479 O   0  0  0  0  0  0  0  0  0  0  0  0
   -0.1773    2.6557   -0.0635 C   0  0  0  0  0  0  0  0  0  0  0  0
   -1.1593    2.8730   -0.0198 H   0  0  0  0  0  0  0  0  0  0  0  0
    0.1864    3.0078   -0.9339 H   0  0  0  0  0  0  0  0  0  0  0  0
    0.3298    3.1631    0.7572 H   0  0  0  0  0  0  0  0  0  0  0  0
   -0.0202    1.1676   -0.0531 C   0  0  0  0  0  0  0  0  0  0  0  0
    1.0929    0.3874    0.0000 C   0  0  0  0  0  0  0  0  0  0  0  0
    2.0358    0.7060    0.0164 H   0  0  0  0  0  0  0  0  0  0  0  0
    0.6719   -0.9199    0.0272 N   0  0  0  0  0  0  0  0  0  0  0  0
   -0.6516   -0.9415    0.0259 C   0  0  0  0  0  0  0  0  0  0  0  0
   -1.2195   -1.7597    0.0419 H   0  0  0  0  0  0  0  0  0  0  0  0
   -1.0929    0.3064   -0.0000 N   0  0  0  0  0  0  0  0  0  0  0  0
   -2.0538    0.5806    0.0151 H   0  0  0  0  0  0  0  0  0  0  0  0
  1  5  1  0
  5  6  1  0
  5  9  2  0
  1  2  1  0
  1  3  1  0
  1  4  1  0
  6  7  1  0
  6  8  1  0
 10 14  1  0
 14 15  2  0
 15 17  1  0
 17 18  2  0
 18 20  1  0
 20 14  1  0
 10 11  1  0
 10 12  1  0
 10 13  1  0
 15 16  1  0
 18 19  1  0
 20 21  1  0
M  END
>  <PDB_ID>  (182) 
pdb3iv7

>  <RESIDUE_NAME>  (182) 
ASN   HID

>  <FRAG_NAME>  (182) 
ACEM   MIMD

>  <FRAG_ATOM_NUM>  (182) 
fragi: 9  fragj: 12

>  <atom.prop.CHAIN_ID>  (182) 
A A A A A A A A A Z Z Z Z Z Z Z Z Z Z Z Z

>  <atom.prop.IS_HEAVY_ATOM>  (182) 
1 0 0 0 1 1 0 0 1 1 0 0 0 1 1 0 1 1 0 1 0

>  <DIFUSE_FUNC_ATOM>  (182) 
n/a

>  <FINAL_SINGLE_POINT_ENERGY>  (182) 
0

>  <NONCOV_INTER_ENERGY_QM>  (182) 
0

>  <FF_Energy>  (182) 
-0.45

>  <QM_Energy>  (182) 
5.72

>  <source>  (182) 
ACEM_MIMD

>  <Index>  (182) 
21685

$$$$
ACEM-pdb4ga9-A-ASN-34:MIMD-pdb4ga9-A-HID-45
     RDKit          3D

 21 20  0  0  0  0  0  0  0  0999 V2000
   -5.5849    2.5911    0.6064 C   0  0  0  0  0  0  0  0  0  0  0  0
   -6.4981    2.2028    0.7177 H   0  0  0  0  0  0  0  0  0  0  0  0
   -5.6021    3.3021   -0.0942 H   0  0  0  0  0  0  0  0  0  0  0  0
   -5.2954    3.0534    1.5501 H   0  0  0  0  0  0  0  0  0  0  0  0
   -4.6403    1.5022    0.1746 C   0  0  0  0  0  0  0  0  0  0  0  0
   -3.3681    1.6609    0.5101 N   0  0  0  0  0  0  0  0  0  0  0  0
   -3.0804    2.4678    1.0280 H   0  0  0  0  0  0  0  0  0  0  0  0
   -2.6897    0.9727    0.2468 H   0  0  0  0  0  0  0  0  0  0  0  0
   -5.0406    0.5289   -0.4614 O   0  0  0  0  0  0  0  0  0  0  0  0
   -0.1720    2.6594   -0.0036 C   0  0  0  0  0  0  0  0  0  0  0  0
   -0.8191    2.8990   -0.7412 H   0  0  0  0  0  0  0  0  0  0  0  0
    0.7229    3.0670   -0.2306 H   0  0  0  0  0  0  0  0  0  0  0  0
   -0.5279    3.0957    0.9297 H   0  0  0  0  0  0  0  0  0  0  0  0
   -0.0164    1.1692    0.0194 C   0  0  0  0  0  0  0  0  0  0  0  0
    1.0919    0.3886    0.0000 C   0  0  0  0  0  0  0  0  0  0  0  0
    2.0368    0.7029   -0.0038 H   0  0  0  0  0  0  0  0  0  0  0  0
    0.6688   -0.9199   -0.0124 N   0  0  0  0  0  0  0  0  0  0  0  0
   -0.6524   -0.9434   -0.0070 C   0  0  0  0  0  0  0  0  0  0  0  0
   -1.2206   -1.7611   -0.0066 H   0  0  0  0  0  0  0  0  0  0  0  0
   -1.0919    0.3055    0.0000 N   0  0  0  0  0  0  0  0  0  0  0  0
   -2.0524    0.5809   -0.0083 H   0  0  0  0  0  0  0  0  0  0  0  0
  1  5  1  0
  5  6  1  0
  5  9  2  0
  1  2  1  0
  1  3  1  0
  1  4  1  0
  6  7  1  0
  6  8  1  0
 10 14  1  0
 14 15  2  0
 15 17  1  0
 17 18  2  0
 18 20  1  0
 20 14  1  0
 10 11  1  0
 10 12  1  0
 10 13  1  0
 15 16  1  0
 18 19  1  0
 20 21  1  0
M  END
>  <PDB_ID>  (183) 
pdb4ga9

>  <RESIDUE_NAME>  (183) 
ASN   HID

>  <FRAG_NAME>  (183) 
ACEM   MIMD

>  <FRAG_ATOM_NUM>  (183) 
fragi: 9  fragj: 12

>  <atom.prop.CHAIN_ID>  (183) 
A A A A A A A A A Z Z Z Z Z Z Z Z Z Z Z Z

>  <atom.prop.IS_HEAVY_ATOM>  (183) 
1 0 0 0 1 1 0 0 1 1 0 0 0 1 1 0 1 1 0 1 0

>  <DIFUSE_FUNC_ATOM>  (183) 
n/a

>  <FINAL_SINGLE_POINT_ENERGY>  (183) 
0

>  <NONCOV_INTER_ENERGY_QM>  (183) 
0

>  <FF_Energy>  (183) 
19.03

>  <QM_Energy>  (183) 
53.69

>  <source>  (183) 
ACEM_MIMD

>  <Index>  (183) 
21823

$$$$
ACEM-pdb3jtq-A-ASN-146:MIMD-pdb3jtq-A-HID-142
     RDKit          3D

 21 20  0  0  0  0  0  0  0  0999 V2000
   -3.7895   -1.4920    2.1475 C   0  0  0  0  0  0  0  0  0  0  0  0
   -2.8655   -1.1258    2.1907 H   0  0  0  0  0  0  0  0  0  0  0  0
   -3.7684   -2.4866    2.1730 H   0  0  0  0  0  0  0  0  0  0  0  0
   -4.3317   -1.1433    3.0264 H   0  0  0  0  0  0  0  0  0  0  0  0
   -4.4355   -1.0468    0.8589 C   0  0  0  0  0  0  0  0  0  0  0  0
   -3.8204   -0.0672    0.2061 N   0  0  0  0  0  0  0  0  0  0  0  0
   -2.9764    0.3287    0.5688 H   0  0  0  0  0  0  0  0  0  0  0  0
   -4.2016    0.2782   -0.6534 H   0  0  0  0  0  0  0  0  0  0  0  0
   -5.4415   -1.6102    0.4169 O   0  0  0  0  0  0  0  0  0  0  0  0
   -0.1693    2.6650    0.0144 C   0  0  0  0  0  0  0  0  0  0  0  0
   -0.3886    2.9580   -0.9215 H   0  0  0  0  0  0  0  0  0  0  0  0
    0.7087    3.0756    0.2816 H   0  0  0  0  0  0  0  0  0  0  0  0
   -0.9442    3.0342    0.6862 H   0  0  0  0  0  0  0  0  0  0  0  0
   -0.0146    1.1695    0.0191 C   0  0  0  0  0  0  0  0  0  0  0  0
    1.0918    0.3897   -0.0000 C   0  0  0  0  0  0  0  0  0  0  0  0
    2.0373    0.7025   -0.0036 H   0  0  0  0  0  0  0  0  0  0  0  0
    0.6678   -0.9179   -0.0113 N   0  0  0  0  0  0  0  0  0  0  0  0
   -0.6531   -0.9433   -0.0078 C   0  0  0  0  0  0  0  0  0  0  0  0
   -1.2196   -1.7624   -0.0093 H   0  0  0  0  0  0  0  0  0  0  0  0
   -1.0918    0.3020   -0.0000 N   0  0  0  0  0  0  0  0  0  0  0  0
   -2.0519    0.5804   -0.0076 H   0  0  0  0  0  0  0  0  0  0  0  0
  1  5  1  0
  5  6  1  0
  5  9  2  0
  1  2  1  0
  1  3  1  0
  1  4  1  0
  6  7  1  0
  6  8  1  0
 10 14  1  0
 14 15  2  0
 15 17  1  0
 17 18  2  0
 18 20  1  0
 20 14  1  0
 10 11  1  0
 10 12  1  0
 10 13  1  0
 15 16  1  0
 18 19  1  0
 20 21  1  0
M  END
>  <PDB_ID>  (184) 
pdb3jtq

>  <RESIDUE_NAME>  (184) 
ASN   HID

>  <FRAG_NAME>  (184) 
ACEM   MIMD

>  <FRAG_ATOM_NUM>  (184) 
fragi: 9  fragj: 12

>  <atom.prop.CHAIN_ID>  (184) 
A A A A A A A A A Z Z Z Z Z Z Z Z Z Z Z Z

>  <atom.prop.IS_HEAVY_ATOM>  (184) 
1 0 0 0 1 1 0 0 1 1 0 0 0 1 1 0 1 1 0 1 0

>  <DIFUSE_FUNC_ATOM>  (184) 
n/a

>  <FINAL_SINGLE_POINT_ENERGY>  (184) 
0

>  <NONCOV_INTER_ENERGY_QM>  (184) 
0

>  <FF_Energy>  (184) 
10.61

>  <QM_Energy>  (184) 
20.21

>  <source>  (184) 
ACEM_MIMD

>  <Index>  (184) 
21862

$$$$
ACEM-pdb4gi6-A-GLN-14:MIMD-pdb4gi6-A-HID-326
     RDKit          3D

 21 20  0  0  0  0  0  0  0  0999 V2000
   -5.1854    1.5018    3.0203 C   0  0  0  0  0  0  0  0  0  0  0  0
   -4.6175    2.1457    3.5140 H   0  0  0  0  0  0  0  0  0  0  0  0
   -5.2106    0.6244    3.4796 H   0  0  0  0  0  0  0  0  0  0  0  0
   -6.1986    1.8984    2.9561 H   0  0  0  0  0  0  0  0  0  0  0  0
   -4.5769    1.2967    1.6205 C   0  0  0  0  0  0  0  0  0  0  0  0
   -3.2564    1.3222    1.5327 N   0  0  0  0  0  0  0  0  0  0  0  0
   -2.7922    1.1813    0.6471 H   0  0  0  0  0  0  0  0  0  0  0  0
   -2.7114    1.4886    2.3801 H   0  0  0  0  0  0  0  0  0  0  0  0
   -5.2903    1.1698    0.6426 O   0  0  0  0  0  0  0  0  0  0  0  0
   -0.1840    2.6459   -0.0223 C   0  0  0  0  0  0  0  0  0  0  0  0
    0.6943    3.0691    0.2074 H   0  0  0  0  0  0  0  0  0  0  0  0
   -0.8650    2.9085    0.6634 H   0  0  0  0  0  0  0  0  0  0  0  0
   -0.5071    2.9893   -1.0051 H   0  0  0  0  0  0  0  0  0  0  0  0
   -0.0186    1.1658    0.0254 C   0  0  0  0  0  0  0  0  0  0  0  0
    1.0956    0.3878   -0.0000 C   0  0  0  0  0  0  0  0  0  0  0  0
    2.0377    0.7046   -0.0069 H   0  0  0  0  0  0  0  0  0  0  0  0
    0.6729   -0.9211   -0.0127 N   0  0  0  0  0  0  0  0  0  0  0  0
   -0.6542   -0.9411   -0.0127 C   0  0  0  0  0  0  0  0  0  0  0  0
   -1.2208   -1.7591   -0.0201 H   0  0  0  0  0  0  0  0  0  0  0  0
   -1.0956    0.3086    0.0000 N   0  0  0  0  0  0  0  0  0  0  0  0
   -2.0544    0.5840   -0.0084 H   0  0  0  0  0  0  0  0  0  0  0  0
  1  5  1  0
  5  6  1  0
  5  9  2  0
  1  2  1  0
  1  3  1  0
  1  4  1  0
  6  7  1  0
  6  8  1  0
 10 14  1  0
 14 15  2  0
 15 17  1  0
 17 18  2  0
 18 20  1  0
 20 14  1  0
 10 11  1  0
 10 12  1  0
 10 13  1  0
 15 16  1  0
 18 19  1  0
 20 21  1  0
M  END
>  <PDB_ID>  (185) 
pdb4gi6

>  <RESIDUE_NAME>  (185) 
GLN   HID

>  <FRAG_NAME>  (185) 
ACEM   MIMD

>  <FRAG_ATOM_NUM>  (185) 
fragi: 9  fragj: 12

>  <atom.prop.CHAIN_ID>  (185) 
A A A A A A A A A Z Z Z Z Z Z Z Z Z Z Z Z

>  <atom.prop.IS_HEAVY_ATOM>  (185) 
1 0 0 0 1 1 0 0 1 1 0 0 0 1 1 0 1 1 0 1 0

>  <DIFUSE_FUNC_ATOM>  (185) 
n/a

>  <FINAL_SINGLE_POINT_ENERGY>  (185) 
0

>  <NONCOV_INTER_ENERGY_QM>  (185) 
0

>  <FF_Energy>  (185) 
7.58

>  <QM_Energy>  (185) 
17.17

>  <source>  (185) 
ACEM_MIMD

>  <Index>  (185) 
21974

$$$$
ACEM-pdb4h0m-O-ASN-151:MIMD-pdb4h0m-O-HID-140
     RDKit          3D

 21 20  0  0  0  0  0  0  0  0999 V2000
   -2.2993   -5.7841    1.5132 C   0  0  0  0  0  0  0  0  0  0  0  0
   -1.7902   -6.1748    2.2703 H   0  0  0  0  0  0  0  0  0  0  0  0
   -2.6275   -6.4976    0.9060 H   0  0  0  0  0  0  0  0  0  0  0  0
   -3.1619   -5.2537    1.9166 H   0  0  0  0  0  0  0  0  0  0  0  0
   -1.3808   -4.8631    0.7329 C   0  0  0  0  0  0  0  0  0  0  0  0
   -1.6755   -3.5561    0.7543 N   0  0  0  0  0  0  0  0  0  0  0  0
   -2.4694   -3.2457    1.2789 H   0  0  0  0  0  0  0  0  0  0  0  0
   -1.1104   -2.9090    0.2567 H   0  0  0  0  0  0  0  0  0  0  0  0
   -0.4183   -5.3185    0.1199 O   0  0  0  0  0  0  0  0  0  0  0  0
   -0.1623    2.6582   -0.0619 C   0  0  0  0  0  0  0  0  0  0  0  0
   -0.0089    3.0301    0.8637 H   0  0  0  0  0  0  0  0  0  0  0  0
   -1.1115    2.8728   -0.3295 H   0  0  0  0  0  0  0  0  0  0  0  0
    0.5154    3.1574   -0.7543 H   0  0  0  0  0  0  0  0  0  0  0  0
   -0.0153    1.1681   -0.0025 C   0  0  0  0  0  0  0  0  0  0  0  0
    1.0913    0.3863   -0.0000 C   0  0  0  0  0  0  0  0  0  0  0  0
    2.0370    0.6994    0.0017 H   0  0  0  0  0  0  0  0  0  0  0  0
    0.6682   -0.9204    0.0013 N   0  0  0  0  0  0  0  0  0  0  0  0
   -0.6528   -0.9414    0.0012 C   0  0  0  0  0  0  0  0  0  0  0  0
   -1.2221   -1.7583    0.0042 H   0  0  0  0  0  0  0  0  0  0  0  0
   -1.0913    0.3075    0.0000 N   0  0  0  0  0  0  0  0  0  0  0  0
   -2.0518    0.5842   -0.0011 H   0  0  0  0  0  0  0  0  0  0  0  0
  1  5  1  0
  5  6  1  0
  5  9  2  0
  1  2  1  0
  1  3  1  0
  1  4  1  0
  6  7  1  0
  6  8  1  0
 10 14  1  0
 14 15  2  0
 15 17  1  0
 17 18  2  0
 18 20  1  0
 20 14  1  0
 10 11  1  0
 10 12  1  0
 10 13  1  0
 15 16  1  0
 18 19  1  0
 20 21  1  0
M  END
>  <PDB_ID>  (186) 
pdb4h0m

>  <RESIDUE_NAME>  (186) 
ASN   HID

>  <FRAG_NAME>  (186) 
ACEM   MIMD

>  <FRAG_ATOM_NUM>  (186) 
fragi: 9  fragj: 12

>  <atom.prop.CHAIN_ID>  (186) 
A A A A A A A A A Z Z Z Z Z Z Z Z Z Z Z Z

>  <atom.prop.IS_HEAVY_ATOM>  (186) 
1 0 0 0 1 1 0 0 1 1 0 0 0 1 1 0 1 1 0 1 0

>  <DIFUSE_FUNC_ATOM>  (186) 
n/a

>  <FINAL_SINGLE_POINT_ENERGY>  (186) 
0

>  <NONCOV_INTER_ENERGY_QM>  (186) 
0

>  <FF_Energy>  (186) 
7.1

>  <QM_Energy>  (186) 
17.07

>  <source>  (186) 
ACEM_MIMD

>  <Index>  (186) 
22375

$$$$
ACEM-pdb3kcq-C-ASN-105:MIMD-pdb3kcq-C-HID-136
     RDKit          3D

 21 20  0  0  0  0  0  0  0  0999 V2000
   -0.2881   -2.1029   -3.4226 C   0  0  0  0  0  0  0  0  0  0  0  0
    0.5333   -2.4151   -3.8988 H   0  0  0  0  0  0  0  0  0  0  0  0
   -0.0286   -1.5121   -2.6593 H   0  0  0  0  0  0  0  0  0  0  0  0
   -0.8855   -1.5165   -4.1207 H   0  0  0  0  0  0  0  0  0  0  0  0
   -1.0180   -3.3092   -2.8740 C   0  0  0  0  0  0  0  0  0  0  0  0
   -1.1594   -3.3438   -1.5526 N   0  0  0  0  0  0  0  0  0  0  0  0
   -0.8024   -2.6053   -0.9838 H   0  0  0  0  0  0  0  0  0  0  0  0
   -1.6295   -4.1193   -1.1219 H   0  0  0  0  0  0  0  0  0  0  0  0
   -1.4594   -4.1984   -3.6147 O   0  0  0  0  0  0  0  0  0  0  0  0
   -0.1616    2.6619    0.0209 C   0  0  0  0  0  0  0  0  0  0  0  0
    0.6747    3.0573    0.4209 H   0  0  0  0  0  0  0  0  0  0  0  0
   -0.9376    2.8939    0.6215 H   0  0  0  0  0  0  0  0  0  0  0  0
   -0.3289    3.0978   -0.9640 H   0  0  0  0  0  0  0  0  0  0  0  0
   -0.0114    1.1672    0.0127 C   0  0  0  0  0  0  0  0  0  0  0  0
    1.0934    0.3847   -0.0000 C   0  0  0  0  0  0  0  0  0  0  0  0
    2.0402    0.6965   -0.0029 H   0  0  0  0  0  0  0  0  0  0  0  0
    0.6670   -0.9207   -0.0053 N   0  0  0  0  0  0  0  0  0  0  0  0
   -0.6555   -0.9379   -0.0074 C   0  0  0  0  0  0  0  0  0  0  0  0
   -1.2249   -1.7567   -0.0135 H   0  0  0  0  0  0  0  0  0  0  0  0
   -1.0934    0.3066    0.0000 N   0  0  0  0  0  0  0  0  0  0  0  0
   -2.0513    0.5890   -0.0022 H   0  0  0  0  0  0  0  0  0  0  0  0
  1  5  1  0
  5  6  1  0
  5  9  2  0
  1  2  1  0
  1  3  1  0
  1  4  1  0
  6  7  1  0
  6  8  1  0
 10 14  1  0
 14 15  2  0
 15 17  1  0
 17 18  2  0
 18 20  1  0
 20 14  1  0
 10 11  1  0
 10 12  1  0
 10 13  1  0
 15 16  1  0
 18 19  1  0
 20 21  1  0
M  END
>  <PDB_ID>  (187) 
pdb3kcq

>  <RESIDUE_NAME>  (187) 
ASN   HID

>  <FRAG_NAME>  (187) 
ACEM   MIMD

>  <FRAG_ATOM_NUM>  (187) 
fragi: 9  fragj: 12

>  <atom.prop.CHAIN_ID>  (187) 
A A A A A A A A A Z Z Z Z Z Z Z Z Z Z Z Z

>  <atom.prop.IS_HEAVY_ATOM>  (187) 
1 0 0 0 1 1 0 0 1 1 0 0 0 1 1 0 1 1 0 1 0

>  <DIFUSE_FUNC_ATOM>  (187) 
n/a

>  <FINAL_SINGLE_POINT_ENERGY>  (187) 
0

>  <NONCOV_INTER_ENERGY_QM>  (187) 
0

>  <FF_Energy>  (187) 
-0.79

>  <QM_Energy>  (187) 
7.14

>  <source>  (187) 
ACEM_MIMD

>  <Index>  (187) 
22406

$$$$
ACEM-pdb3kl2-I-GLN-208:MIMD-pdb3kl2-I-HID-71
     RDKit          3D

 21 20  0  0  0  0  0  0  0  0999 V2000
    0.6362   -0.1566   -4.8310 C   0  0  0  0  0  0  0  0  0  0  0  0
    0.0245    0.4549   -5.3389 H   0  0  0  0  0  0  0  0  0  0  0  0
    0.2698   -1.0900   -4.8705 H   0  0  0  0  0  0  0  0  0  0  0  0
    1.6178   -0.1443   -5.3048 H   0  0  0  0  0  0  0  0  0  0  0  0
    0.6501    0.2900   -3.3681 C   0  0  0  0  0  0  0  0  0  0  0  0
    0.0305   -0.5029   -2.4908 N   0  0  0  0  0  0  0  0  0  0  0  0
    0.0138   -0.2740   -1.5090 H   0  0  0  0  0  0  0  0  0  0  0  0
   -0.4263   -1.3453   -2.8367 H   0  0  0  0  0  0  0  0  0  0  0  0
    1.2386    1.3200   -3.0320 O   0  0  0  0  0  0  0  0  0  0  0  0
   -0.1255    2.6541   -0.1396 C   0  0  0  0  0  0  0  0  0  0  0  0
   -0.9220    2.8624   -0.7181 H   0  0  0  0  0  0  0  0  0  0  0  0
    0.7011    2.9945   -0.6019 H   0  0  0  0  0  0  0  0  0  0  0  0
   -0.2353    3.1804    0.8085 H   0  0  0  0  0  0  0  0  0  0  0  0
   -0.0134    1.1664   -0.0046 C   0  0  0  0  0  0  0  0  0  0  0  0
    1.0881    0.3791   -0.0000 C   0  0  0  0  0  0  0  0  0  0  0  0
    2.0366    0.6920    0.0028 H   0  0  0  0  0  0  0  0  0  0  0  0
    0.6656   -0.9243    0.0009 N   0  0  0  0  0  0  0  0  0  0  0  0
   -0.6523   -0.9337    0.0037 C   0  0  0  0  0  0  0  0  0  0  0  0
   -1.2290   -1.7504    0.0089 H   0  0  0  0  0  0  0  0  0  0  0  0
   -1.0881    0.3125    0.0000 N   0  0  0  0  0  0  0  0  0  0  0  0
   -2.0482    0.5908    0.0007 H   0  0  0  0  0  0  0  0  0  0  0  0
  1  5  1  0
  5  6  1  0
  5  9  2  0
  1  2  1  0
  1  3  1  0
  1  4  1  0
  6  7  1  0
  6  8  1  0
 10 14  1  0
 14 15  2  0
 15 17  1  0
 17 18  2  0
 18 20  1  0
 20 14  1  0
 10 11  1  0
 10 12  1  0
 10 13  1  0
 15 16  1  0
 18 19  1  0
 20 21  1  0
M  END
>  <PDB_ID>  (188) 
pdb3kl2

>  <RESIDUE_NAME>  (188) 
GLN   HID

>  <FRAG_NAME>  (188) 
ACEM   MIMD

>  <FRAG_ATOM_NUM>  (188) 
fragi: 9  fragj: 12

>  <atom.prop.CHAIN_ID>  (188) 
A A A A A A A A A Z Z Z Z Z Z Z Z Z Z Z Z

>  <atom.prop.IS_HEAVY_ATOM>  (188) 
1 0 0 0 1 1 0 0 1 1 0 0 0 1 1 0 1 1 0 1 0

>  <DIFUSE_FUNC_ATOM>  (188) 
n/a

>  <FINAL_SINGLE_POINT_ENERGY>  (188) 
0

>  <NONCOV_INTER_ENERGY_QM>  (188) 
0

>  <FF_Energy>  (188) 
8.86

>  <QM_Energy>  (188) 
14.39

>  <source>  (188) 
ACEM_MIMD

>  <Index>  (188) 
22592

$$$$
ACEM-pdb3ktc-B-ASN-158:MIMD-pdb3ktc-B-HID-109
     RDKit          3D

 21 20  0  0  0  0  0  0  0  0999 V2000
   -5.4097   -1.3052    2.0230 C   0  0  0  0  0  0  0  0  0  0  0  0
   -6.0598   -0.6499    1.6477 H   0  0  0  0  0  0  0  0  0  0  0  0
   -5.5049   -1.3509    3.0150 H   0  0  0  0  0  0  0  0  0  0  0  0
   -5.6291   -2.2889    1.6077 H   0  0  0  0  0  0  0  0  0  0  0  0
   -4.0080   -0.8351    1.6943 C   0  0  0  0  0  0  0  0  0  0  0  0
   -3.8766    0.1248    0.7627 N   0  0  0  0  0  0  0  0  0  0  0  0
   -4.7082    0.4874    0.3348 H   0  0  0  0  0  0  0  0  0  0  0  0
   -2.9827    0.4594    0.5117 H   0  0  0  0  0  0  0  0  0  0  0  0
   -3.0438   -1.3130    2.2975 O   0  0  0  0  0  0  0  0  0  0  0  0
   -0.1608    2.6421    0.0003 C   0  0  0  0  0  0  0  0  0  0  0  0
   -0.6666    2.8998   -0.8362 H   0  0  0  0  0  0  0  0  0  0  0  0
    0.7602    3.0553   -0.0575 H   0  0  0  0  0  0  0  0  0  0  0  0
   -0.6782    3.0525    0.8674 H   0  0  0  0  0  0  0  0  0  0  0  0
   -0.0108    1.1643    0.0217 C   0  0  0  0  0  0  0  0  0  0  0  0
    1.0924    0.3827    0.0000 C   0  0  0  0  0  0  0  0  0  0  0  0
    2.0402    0.6938   -0.0115 H   0  0  0  0  0  0  0  0  0  0  0  0
    0.6665   -0.9231   -0.0014 N   0  0  0  0  0  0  0  0  0  0  0  0
   -0.6557   -0.9365   -0.0203 C   0  0  0  0  0  0  0  0  0  0  0  0
   -1.2281   -1.7523   -0.0444 H   0  0  0  0  0  0  0  0  0  0  0  0
   -1.0924    0.3127    0.0000 N   0  0  0  0  0  0  0  0  0  0  0  0
   -2.0493    0.5930   -0.0009 H   0  0  0  0  0  0  0  0  0  0  0  0
  1  5  1  0
  5  6  1  0
  5  9  2  0
  1  2  1  0
  1  3  1  0
  1  4  1  0
  6  7  1  0
  6  8  1  0
 10 14  1  0
 14 15  2  0
 15 17  1  0
 17 18  2  0
 18 20  1  0
 20 14  1  0
 10 11  1  0
 10 12  1  0
 10 13  1  0
 15 16  1  0
 18 19  1  0
 20 21  1  0
M  END
>  <PDB_ID>  (189) 
pdb3ktc

>  <RESIDUE_NAME>  (189) 
ASN   HID

>  <FRAG_NAME>  (189) 
ACEM   MIMD

>  <FRAG_ATOM_NUM>  (189) 
fragi: 9  fragj: 12

>  <atom.prop.CHAIN_ID>  (189) 
A A A A A A A A A Z Z Z Z Z Z Z Z Z Z Z Z

>  <atom.prop.IS_HEAVY_ATOM>  (189) 
1 0 0 0 1 1 0 0 1 1 0 0 0 1 1 0 1 1 0 1 0

>  <DIFUSE_FUNC_ATOM>  (189) 
n/a

>  <FINAL_SINGLE_POINT_ENERGY>  (189) 
0

>  <NONCOV_INTER_ENERGY_QM>  (189) 
0

>  <FF_Energy>  (189) 
9.38

>  <QM_Energy>  (189) 
21.86

>  <source>  (189) 
ACEM_MIMD

>  <Index>  (189) 
22760

$$$$
ACEM-pdb4hk5-B-ASN-98:MIMD-pdb4hk5-B-HID-197
     RDKit          3D

 21 20  0  0  0  0  0  0  0  0999 V2000
   -2.8791    1.8585   -2.5017 C   0  0  0  0  0  0  0  0  0  0  0  0
   -2.1494    1.4046   -1.9986 H   0  0  0  0  0  0  0  0  0  0  0  0
   -2.7054    2.8375   -2.5516 H   0  0  0  0  0  0  0  0  0  0  0  0
   -2.8960    1.4610   -3.5164 H   0  0  0  0  0  0  0  0  0  0  0  0
   -4.1908    1.6372   -1.7556 C   0  0  0  0  0  0  0  0  0  0  0  0
   -4.1065    0.9595   -0.6176 N   0  0  0  0  0  0  0  0  0  0  0  0
   -3.2195    0.6314   -0.2914 H   0  0  0  0  0  0  0  0  0  0  0  0
   -4.9320    0.7750   -0.0815 H   0  0  0  0  0  0  0  0  0  0  0  0
   -5.2622    2.0815   -2.1871 O   0  0  0  0  0  0  0  0  0  0  0  0
   -0.2187    2.6741    0.0002 C   0  0  0  0  0  0  0  0  0  0  0  0
   -0.8854    2.9134   -0.7107 H   0  0  0  0  0  0  0  0  0  0  0  0
    0.6671    3.0838   -0.2341 H   0  0  0  0  0  0  0  0  0  0  0  0
   -0.5558    3.0674    0.9593 H   0  0  0  0  0  0  0  0  0  0  0  0
   -0.0500    1.1687   -0.0084 C   0  0  0  0  0  0  0  0  0  0  0  0
    1.0987    0.3759    0.0000 C   0  0  0  0  0  0  0  0  0  0  0  0
    2.0277    0.7291    0.0024 H   0  0  0  0  0  0  0  0  0  0  0  0
    0.6968   -0.9148    0.0048 N   0  0  0  0  0  0  0  0  0  0  0  0
   -0.6468   -0.9499    0.0037 C   0  0  0  0  0  0  0  0  0  0  0  0
   -1.2047   -1.7610    0.0070 H   0  0  0  0  0  0  0  0  0  0  0  0
   -1.0987    0.3201   -0.0000 N   0  0  0  0  0  0  0  0  0  0  0  0
   -2.0684    0.5665    0.0025 H   0  0  0  0  0  0  0  0  0  0  0  0
  1  5  1  0
  5  6  1  0
  5  9  2  0
  1  2  1  0
  1  3  1  0
  1  4  1  0
  6  7  1  0
  6  8  1  0
 10 14  1  0
 14 15  2  0
 15 17  1  0
 17 18  2  0
 18 20  1  0
 20 14  1  0
 10 11  1  0
 10 12  1  0
 10 13  1  0
 15 16  1  0
 18 19  1  0
 20 21  1  0
M  END
>  <PDB_ID>  (190) 
pdb4hk5

>  <RESIDUE_NAME>  (190) 
ASN   HID

>  <FRAG_NAME>  (190) 
ACEM   MIMD

>  <FRAG_ATOM_NUM>  (190) 
fragi: 9  fragj: 12

>  <atom.prop.CHAIN_ID>  (190) 
A A A A A A A A A Z Z Z Z Z Z Z Z Z Z Z Z

>  <atom.prop.IS_HEAVY_ATOM>  (190) 
1 0 0 0 1 1 0 0 1 1 0 0 0 1 1 0 1 1 0 1 0

>  <DIFUSE_FUNC_ATOM>  (190) 
n/a

>  <FINAL_SINGLE_POINT_ENERGY>  (190) 
0

>  <NONCOV_INTER_ENERGY_QM>  (190) 
0

>  <FF_Energy>  (190) 
7.88

>  <QM_Energy>  (190) 
14.23

>  <source>  (190) 
ACEM_MIMD

>  <Index>  (190) 
22763

$$$$
ACEM-pdb4hn3-C-ASN-69:MIMD-pdb4hn3-C-HID-142
     RDKit          3D

 21 20  0  0  0  0  0  0  0  0999 V2000
   -2.7982    1.8825   -2.7714 C   0  0  0  0  0  0  0  0  0  0  0  0
   -2.0419    1.2497   -2.6579 H   0  0  0  0  0  0  0  0  0  0  0  0
   -2.6237    2.7296   -2.2846 H   0  0  0  0  0  0  0  0  0  0  0  0
   -2.9124    2.1058   -3.8322 H   0  0  0  0  0  0  0  0  0  0  0  0
   -4.0519    1.2426   -2.1887 C   0  0  0  0  0  0  0  0  0  0  0  0
   -3.9175    0.5862   -1.0478 N   0  0  0  0  0  0  0  0  0  0  0  0
   -3.0144    0.5368   -0.6093 H   0  0  0  0  0  0  0  0  0  0  0  0
   -4.7028    0.1427   -0.6223 H   0  0  0  0  0  0  0  0  0  0  0  0
   -5.1218    1.3425   -2.7779 O   0  0  0  0  0  0  0  0  0  0  0  0
   -0.1847    2.6548    0.0033 C   0  0  0  0  0  0  0  0  0  0  0  0
   -0.7070    2.9245   -0.8099 H   0  0  0  0  0  0  0  0  0  0  0  0
    0.7239    3.0786   -0.0377 H   0  0  0  0  0  0  0  0  0  0  0  0
   -0.7013    3.0254    0.8887 H   0  0  0  0  0  0  0  0  0  0  0  0
   -0.0185    1.1676   -0.0083 C   0  0  0  0  0  0  0  0  0  0  0  0
    1.0913    0.3915   -0.0000 C   0  0  0  0  0  0  0  0  0  0  0  0
    2.0358    0.7070    0.0028 H   0  0  0  0  0  0  0  0  0  0  0  0
    0.6703   -0.9174    0.0046 N   0  0  0  0  0  0  0  0  0  0  0  0
   -0.6518   -0.9441    0.0037 C   0  0  0  0  0  0  0  0  0  0  0  0
   -1.2173   -1.7625    0.0063 H   0  0  0  0  0  0  0  0  0  0  0  0
   -1.0913    0.3024    0.0000 N   0  0  0  0  0  0  0  0  0  0  0  0
   -2.0532    0.5777    0.0025 H   0  0  0  0  0  0  0  0  0  0  0  0
  1  5  1  0
  5  6  1  0
  5  9  2  0
  1  2  1  0
  1  3  1  0
  1  4  1  0
  6  7  1  0
  6  8  1  0
 10 14  1  0
 14 15  2  0
 15 17  1  0
 17 18  2  0
 18 20  1  0
 20 14  1  0
 10 11  1  0
 10 12  1  0
 10 13  1  0
 15 16  1  0
 18 19  1  0
 20 21  1  0
M  END
>  <PDB_ID>  (191) 
pdb4hn3

>  <RESIDUE_NAME>  (191) 
ASN   HID

>  <FRAG_NAME>  (191) 
ACEM   MIMD

>  <FRAG_ATOM_NUM>  (191) 
fragi: 9  fragj: 12

>  <atom.prop.CHAIN_ID>  (191) 
A A A A A A A A A Z Z Z Z Z Z Z Z Z Z Z Z

>  <atom.prop.IS_HEAVY_ATOM>  (191) 
1 0 0 0 1 1 0 0 1 1 0 0 0 1 1 0 1 1 0 1 0

>  <DIFUSE_FUNC_ATOM>  (191) 
n/a

>  <FINAL_SINGLE_POINT_ENERGY>  (191) 
0

>  <NONCOV_INTER_ENERGY_QM>  (191) 
0

>  <FF_Energy>  (191) 
7.84

>  <QM_Energy>  (191) 
16.04

>  <source>  (191) 
ACEM_MIMD

>  <Index>  (191) 
22843

$$$$
ACEM-pdb3kvn-A-ASN-581:MIMD-pdb3kvn-A-HID-546
     RDKit          3D

 21 20  0  0  0  0  0  0  0  0999 V2000
   -5.6542    2.5243    1.2757 C   0  0  0  0  0  0  0  0  0  0  0  0
   -6.5062    2.0780    1.5325 H   0  0  0  0  0  0  0  0  0  0  0  0
   -5.8431    3.3604    0.7690 H   0  0  0  0  0  0  0  0  0  0  0  0
   -5.1122    2.7854    2.1846 H   0  0  0  0  0  0  0  0  0  0  0  0
   -4.8677    1.5832    0.3798 C   0  0  0  0  0  0  0  0  0  0  0  0
   -3.5489    1.7302    0.3786 N   0  0  0  0  0  0  0  0  0  0  0  0
   -3.1248    2.4307    0.9548 H   0  0  0  0  0  0  0  0  0  0  0  0
   -2.9774    1.1436   -0.1947 H   0  0  0  0  0  0  0  0  0  0  0  0
   -5.4390    0.7347   -0.3005 O   0  0  0  0  0  0  0  0  0  0  0  0
   -0.1810    2.6521    0.0015 C   0  0  0  0  0  0  0  0  0  0  0  0
   -0.9700    2.8879   -0.5763 H   0  0  0  0  0  0  0  0  0  0  0  0
    0.6443    3.0624   -0.4025 H   0  0  0  0  0  0  0  0  0  0  0  0
   -0.3324    3.0679    0.9977 H   0  0  0  0  0  0  0  0  0  0  0  0
   -0.0191    1.1659   -0.0063 C   0  0  0  0  0  0  0  0  0  0  0  0
    1.0909    0.3911    0.0000 C   0  0  0  0  0  0  0  0  0  0  0  0
    2.0352    0.7066    0.0020 H   0  0  0  0  0  0  0  0  0  0  0  0
    0.6689   -0.9168    0.0038 N   0  0  0  0  0  0  0  0  0  0  0  0
   -0.6499   -0.9429    0.0026 C   0  0  0  0  0  0  0  0  0  0  0  0
   -1.2171   -1.7614    0.0048 H   0  0  0  0  0  0  0  0  0  0  0  0
   -1.0909    0.3028   -0.0000 N   0  0  0  0  0  0  0  0  0  0  0  0
   -2.0527    0.5764    0.0019 H   0  0  0  0  0  0  0  0  0  0  0  0
  1  5  1  0
  5  6  1  0
  5  9  2  0
  1  2  1  0
  1  3  1  0
  1  4  1  0
  6  7  1  0
  6  8  1  0
 10 14  1  0
 14 15  2  0
 15 17  1  0
 17 18  2  0
 18 20  1  0
 20 14  1  0
 10 11  1  0
 10 12  1  0
 10 13  1  0
 15 16  1  0
 18 19  1  0
 20 21  1  0
M  END
>  <PDB_ID>  (192) 
pdb3kvn

>  <RESIDUE_NAME>  (192) 
ASN   HID

>  <FRAG_NAME>  (192) 
ACEM   MIMD

>  <FRAG_ATOM_NUM>  (192) 
fragi: 9  fragj: 12

>  <atom.prop.CHAIN_ID>  (192) 
A A A A A A A A A Z Z Z Z Z Z Z Z Z Z Z Z

>  <atom.prop.IS_HEAVY_ATOM>  (192) 
1 0 0 0 1 1 0 0 1 1 0 0 0 1 1 0 1 1 0 1 0

>  <DIFUSE_FUNC_ATOM>  (192) 
n/a

>  <FINAL_SINGLE_POINT_ENERGY>  (192) 
0

>  <NONCOV_INTER_ENERGY_QM>  (192) 
0

>  <FF_Energy>  (192) 
8.14

>  <QM_Energy>  (192) 
19.32

>  <source>  (192) 
ACEM_MIMD

>  <Index>  (192) 
22897

$$$$
ACEM-pdb3kvn-X-ASN-581:MIMD-pdb3kvn-X-HID-546
     RDKit          3D

 21 20  0  0  0  0  0  0  0  0999 V2000
   -5.6738    2.4897    1.2840 C   0  0  0  0  0  0  0  0  0  0  0  0
   -6.5030    2.0185    1.5682 H   0  0  0  0  0  0  0  0  0  0  0  0
   -5.9033    3.3169    0.7792 H   0  0  0  0  0  0  0  0  0  0  0  0
   -5.1174    2.7752    2.1768 H   0  0  0  0  0  0  0  0  0  0  0  0
   -4.8783    1.5747    0.3829 C   0  0  0  0  0  0  0  0  0  0  0  0
   -3.5669    1.7290    0.4048 N   0  0  0  0  0  0  0  0  0  0  0  0
   -3.1472    2.4171    0.9998 H   0  0  0  0  0  0  0  0  0  0  0  0
   -2.9821    1.1566   -0.1749 H   0  0  0  0  0  0  0  0  0  0  0  0
   -5.4360    0.7316   -0.3242 O   0  0  0  0  0  0  0  0  0  0  0  0
   -0.1707    2.6538   -0.0056 C   0  0  0  0  0  0  0  0  0  0  0  0
   -0.9594    2.8893   -0.5849 H   0  0  0  0  0  0  0  0  0  0  0  0
    0.6555    3.0593   -0.4113 H   0  0  0  0  0  0  0  0  0  0  0  0
   -0.3208    3.0729    0.9893 H   0  0  0  0  0  0  0  0  0  0  0  0
   -0.0137    1.1676   -0.0090 C   0  0  0  0  0  0  0  0  0  0  0  0
    1.0922    0.3861    0.0000 C   0  0  0  0  0  0  0  0  0  0  0  0
    2.0387    0.6991    0.0045 H   0  0  0  0  0  0  0  0  0  0  0  0
    0.6680   -0.9195    0.0039 N   0  0  0  0  0  0  0  0  0  0  0  0
   -0.6544   -0.9393    0.0051 C   0  0  0  0  0  0  0  0  0  0  0  0
   -1.2221   -1.7581    0.0108 H   0  0  0  0  0  0  0  0  0  0  0  0
   -1.0922    0.3051   -0.0000 N   0  0  0  0  0  0  0  0  0  0  0  0
   -2.0515    0.5855    0.0016 H   0  0  0  0  0  0  0  0  0  0  0  0
  1  5  1  0
  5  6  1  0
  5  9  2  0
  1  2  1  0
  1  3  1  0
  1  4  1  0
  6  7  1  0
  6  8  1  0
 10 14  1  0
 14 15  2  0
 15 17  1  0
 17 18  2  0
 18 20  1  0
 20 14  1  0
 10 11  1  0
 10 12  1  0
 10 13  1  0
 15 16  1  0
 18 19  1  0
 20 21  1  0
M  END
>  <PDB_ID>  (193) 
pdb3kvn

>  <RESIDUE_NAME>  (193) 
ASN   HID

>  <FRAG_NAME>  (193) 
ACEM   MIMD

>  <FRAG_ATOM_NUM>  (193) 
fragi: 9  fragj: 12

>  <atom.prop.CHAIN_ID>  (193) 
A A A A A A A A A Z Z Z Z Z Z Z Z Z Z Z Z

>  <atom.prop.IS_HEAVY_ATOM>  (193) 
1 0 0 0 1 1 0 0 1 1 0 0 0 1 1 0 1 1 0 1 0

>  <DIFUSE_FUNC_ATOM>  (193) 
n/a

>  <FINAL_SINGLE_POINT_ENERGY>  (193) 
0

>  <NONCOV_INTER_ENERGY_QM>  (193) 
0

>  <FF_Energy>  (193) 
7.93

>  <QM_Energy>  (193) 
18.98

>  <source>  (193) 
ACEM_MIMD

>  <Index>  (193) 
22898

$$$$
ACEM-pdb3l22-A-ASN-49:MIMD-pdb3l22-A-HID-220
     RDKit          3D

 21 20  0  0  0  0  0  0  0  0999 V2000
   -1.6022   -5.2627    3.1256 C   0  0  0  0  0  0  0  0  0  0  0  0
   -1.1315   -6.1103    3.3109 H   0  0  0  0  0  0  0  0  0  0  0  0
   -2.5490   -5.4149    2.8934 H   0  0  0  0  0  0  0  0  0  0  0  0
   -1.5520   -4.6278    4.0102 H   0  0  0  0  0  0  0  0  0  0  0  0
   -0.9166   -4.5887    1.9223 C   0  0  0  0  0  0  0  0  0  0  0  0
   -1.2553   -3.3217    1.6873 N   0  0  0  0  0  0  0  0  0  0  0  0
   -1.9169   -2.8658    2.2832 H   0  0  0  0  0  0  0  0  0  0  0  0
   -0.8504   -2.8304    0.9181 H   0  0  0  0  0  0  0  0  0  0  0  0
   -0.1034   -5.2217    1.1909 O   0  0  0  0  0  0  0  0  0  0  0  0
   -0.1844    2.6546   -0.0357 C   0  0  0  0  0  0  0  0  0  0  0  0
    0.0033    2.9852   -0.9691 H   0  0  0  0  0  0  0  0  0  0  0  0
    0.4962    3.0615    0.5855 H   0  0  0  0  0  0  0  0  0  0  0  0
   -1.1733    3.0035    0.2618 H   0  0  0  0  0  0  0  0  0  0  0  0
   -0.0198    1.1690   -0.0143 C   0  0  0  0  0  0  0  0  0  0  0  0
    1.0901    0.3945   -0.0000 C   0  0  0  0  0  0  0  0  0  0  0  0
    2.0345    0.7110    0.0046 H   0  0  0  0  0  0  0  0  0  0  0  0
    0.6717   -0.9182    0.0079 N   0  0  0  0  0  0  0  0  0  0  0  0
   -0.6518   -0.9449    0.0064 C   0  0  0  0  0  0  0  0  0  0  0  0
   -1.2153   -1.7647    0.0121 H   0  0  0  0  0  0  0  0  0  0  0  0
   -1.0901    0.2995   -0.0000 N   0  0  0  0  0  0  0  0  0  0  0  0
   -2.0535    0.5747    0.0046 H   0  0  0  0  0  0  0  0  0  0  0  0
  1  5  1  0
  5  6  1  0
  5  9  2  0
  1  2  1  0
  1  3  1  0
  1  4  1  0
  6  7  1  0
  6  8  1  0
 10 14  1  0
 14 15  2  0
 15 17  1  0
 17 18  2  0
 18 20  1  0
 20 14  1  0
 10 11  1  0
 10 12  1  0
 10 13  1  0
 15 16  1  0
 18 19  1  0
 20 21  1  0
M  END
>  <PDB_ID>  (194) 
pdb3l22

>  <RESIDUE_NAME>  (194) 
ASN   HID

>  <FRAG_NAME>  (194) 
ACEM   MIMD

>  <FRAG_ATOM_NUM>  (194) 
fragi: 9  fragj: 12

>  <atom.prop.CHAIN_ID>  (194) 
A A A A A A A A A Z Z Z Z Z Z Z Z Z Z Z Z

>  <atom.prop.IS_HEAVY_ATOM>  (194) 
1 0 0 0 1 1 0 0 1 1 0 0 0 1 1 0 1 1 0 1 0

>  <DIFUSE_FUNC_ATOM>  (194) 
n/a

>  <FINAL_SINGLE_POINT_ENERGY>  (194) 
0

>  <NONCOV_INTER_ENERGY_QM>  (194) 
0

>  <FF_Energy>  (194) 
2.24

>  <QM_Energy>  (194) 
7.41

>  <source>  (194) 
ACEM_MIMD

>  <Index>  (194) 
23052

$$$$
ACEM-pdb3l6e-A-ASN-227:MIMD-pdb3l6e-B-HID-218
     RDKit          3D

 21 20  0  0  0  0  0  0  0  0999 V2000
   -5.4652    0.5811    1.7332 C   0  0  0  0  0  0  0  0  0  0  0  0
   -6.3542    0.8430    1.3692 H   0  0  0  0  0  0  0  0  0  0  0  0
   -5.5333    0.4012    2.7099 H   0  0  0  0  0  0  0  0  0  0  0  0
   -5.1488   -0.3370    1.2382 H   0  0  0  0  0  0  0  0  0  0  0  0
   -4.4953    1.7233    1.5147 C   0  0  0  0  0  0  0  0  0  0  0  0
   -3.3468    1.4254    0.9164 N   0  0  0  0  0  0  0  0  0  0  0  0
   -3.1673    0.4818    0.6304 H   0  0  0  0  0  0  0  0  0  0  0  0
   -2.6666    2.1363    0.7500 H   0  0  0  0  0  0  0  0  0  0  0  0
   -4.7827    2.8667    1.8685 O   0  0  0  0  0  0  0  0  0  0  0  0
   -0.1847    2.6544   -0.0355 C   0  0  0  0  0  0  0  0  0  0  0  0
    0.6892    3.0793    0.2140 H   0  0  0  0  0  0  0  0  0  0  0  0
   -0.8774    2.9145    0.6418 H   0  0  0  0  0  0  0  0  0  0  0  0
   -0.4911    3.0290   -1.0122 H   0  0  0  0  0  0  0  0  0  0  0  0
   -0.0190    1.1686    0.0006 C   0  0  0  0  0  0  0  0  0  0  0  0
    1.0930    0.3910   -0.0000 C   0  0  0  0  0  0  0  0  0  0  0  0
    2.0365    0.7068   -0.0013 H   0  0  0  0  0  0  0  0  0  0  0  0
    0.6700   -0.9178    0.0031 N   0  0  0  0  0  0  0  0  0  0  0  0
   -0.6510   -0.9432   -0.0037 C   0  0  0  0  0  0  0  0  0  0  0  0
   -1.2167   -1.7631   -0.0095 H   0  0  0  0  0  0  0  0  0  0  0  0
   -1.0930    0.3015   -0.0000 N   0  0  0  0  0  0  0  0  0  0  0  0
   -2.0535    0.5767    0.0012 H   0  0  0  0  0  0  0  0  0  0  0  0
  1  5  1  0
  5  6  1  0
  5  9  2  0
  1  2  1  0
  1  3  1  0
  1  4  1  0
  6  7  1  0
  6  8  1  0
 10 14  1  0
 14 15  2  0
 15 17  1  0
 17 18  2  0
 18 20  1  0
 20 14  1  0
 10 11  1  0
 10 12  1  0
 10 13  1  0
 15 16  1  0
 18 19  1  0
 20 21  1  0
M  END
>  <PDB_ID>  (195) 
pdb3l6e

>  <RESIDUE_NAME>  (195) 
ASN   HID

>  <FRAG_NAME>  (195) 
ACEM   MIMD

>  <FRAG_ATOM_NUM>  (195) 
fragi: 9  fragj: 12

>  <atom.prop.CHAIN_ID>  (195) 
A A A A A A A A A Z Z Z Z Z Z Z Z Z Z Z Z

>  <atom.prop.IS_HEAVY_ATOM>  (195) 
1 0 0 0 1 1 0 0 1 1 0 0 0 1 1 0 1 1 0 1 0

>  <DIFUSE_FUNC_ATOM>  (195) 
n/a

>  <FINAL_SINGLE_POINT_ENERGY>  (195) 
0

>  <NONCOV_INTER_ENERGY_QM>  (195) 
0

>  <FF_Energy>  (195) 
11.48

>  <QM_Energy>  (195) 
17.53

>  <source>  (195) 
ACEM_MIMD

>  <Index>  (195) 
23165

$$$$
ACEM-pdb4ixl-A-GLN-186:MIMD-pdb4ixl-A-HID-43
     RDKit          3D

 21 20  0  0  0  0  0  0  0  0999 V2000
    4.7066    1.0658   -3.2020 C   0  0  0  0  0  0  0  0  0  0  0  0
    4.1750    0.6595   -3.9638 H   0  0  0  0  0  0  0  0  0  0  0  0
    5.4888    0.4495   -3.0163 H   0  0  0  0  0  0  0  0  0  0  0  0
    5.0924    2.0333   -3.5233 H   0  0  0  0  0  0  0  0  0  0  0  0
    3.8473    1.1247   -1.9988 C   0  0  0  0  0  0  0  0  0  0  0  0
    2.8978    0.1890   -1.9105 N   0  0  0  0  0  0  0  0  0  0  0  0
    2.2679    0.1508   -1.1010 H   0  0  0  0  0  0  0  0  0  0  0  0
    2.8056   -0.4896   -2.6621 H   0  0  0  0  0  0  0  0  0  0  0  0
    4.0198    1.9792   -1.1321 O   0  0  0  0  0  0  0  0  0  0  0  0
   -0.1734    2.6617   -0.0624 C   0  0  0  0  0  0  0  0  0  0  0  0
    0.2138    3.0500    0.7817 H   0  0  0  0  0  0  0  0  0  0  0  0
   -1.1583    2.8699   -0.0852 H   0  0  0  0  0  0  0  0  0  0  0  0
    0.3093    3.1238   -0.9234 H   0  0  0  0  0  0  0  0  0  0  0  0
   -0.0144    1.1695   -0.0051 C   0  0  0  0  0  0  0  0  0  0  0  0
    1.0919    0.3890   -0.0000 C   0  0  0  0  0  0  0  0  0  0  0  0
    2.0376    0.7008    0.0030 H   0  0  0  0  0  0  0  0  0  0  0  0
    0.6675   -0.9214    0.0026 N   0  0  0  0  0  0  0  0  0  0  0  0
   -0.6531   -0.9417    0.0025 C   0  0  0  0  0  0  0  0  0  0  0  0
   -1.2216   -1.7604    0.0062 H   0  0  0  0  0  0  0  0  0  0  0  0
   -1.0919    0.3046    0.0000 N   0  0  0  0  0  0  0  0  0  0  0  0
   -2.0516    0.5824    0.0013 H   0  0  0  0  0  0  0  0  0  0  0  0
  1  5  1  0
  5  6  1  0
  5  9  2  0
  1  2  1  0
  1  3  1  0
  1  4  1  0
  6  7  1  0
  6  8  1  0
 10 14  1  0
 14 15  2  0
 15 17  1  0
 17 18  2  0
 18 20  1  0
 20 14  1  0
 10 11  1  0
 10 12  1  0
 10 13  1  0
 15 16  1  0
 18 19  1  0
 20 21  1  0
M  END
>  <PDB_ID>  (196) 
pdb4ixl

>  <RESIDUE_NAME>  (196) 
GLN   HID

>  <FRAG_NAME>  (196) 
ACEM   MIMD

>  <FRAG_ATOM_NUM>  (196) 
fragi: 9  fragj: 12

>  <atom.prop.CHAIN_ID>  (196) 
A A A A A A A A A Z Z Z Z Z Z Z Z Z Z Z Z

>  <atom.prop.IS_HEAVY_ATOM>  (196) 
1 0 0 0 1 1 0 0 1 1 0 0 0 1 1 0 1 1 0 1 0

>  <DIFUSE_FUNC_ATOM>  (196) 
n/a

>  <FINAL_SINGLE_POINT_ENERGY>  (196) 
0

>  <NONCOV_INTER_ENERGY_QM>  (196) 
0

>  <FF_Energy>  (196) 
6.64

>  <QM_Energy>  (196) 
13.99

>  <source>  (196) 
ACEM_MIMD

>  <Index>  (196) 
23982

$$$$
ACEM-pdb3lxy-A-GLN-237:MIMD-pdb3lxy-A-HID-183
     RDKit          3D

 21 20  0  0  0  0  0  0  0  0999 V2000
   -1.5283   -5.4452    1.8891 C   0  0  0  0  0  0  0  0  0  0  0  0
   -1.2053   -6.2311    1.3642 H   0  0  0  0  0  0  0  0  0  0  0  0
   -2.5206   -5.3701    1.8053 H   0  0  0  0  0  0  0  0  0  0  0  0
   -1.2762   -5.5973    2.9386 H   0  0  0  0  0  0  0  0  0  0  0  0
   -0.8965   -4.1934    1.3259 C   0  0  0  0  0  0  0  0  0  0  0  0
   -1.2503   -3.8623    0.0712 N   0  0  0  0  0  0  0  0  0  0  0  0
   -0.8769   -3.0281   -0.3661 H   0  0  0  0  0  0  0  0  0  0  0  0
   -1.8975   -4.4675   -0.4242 H   0  0  0  0  0  0  0  0  0  0  0  0
   -0.1213   -3.5038    2.0102 O   0  0  0  0  0  0  0  0  0  0  0  0
   -0.1718    2.6621    0.0189 C   0  0  0  0  0  0  0  0  0  0  0  0
   -1.1042    2.8882   -0.2697 H   0  0  0  0  0  0  0  0  0  0  0  0
    0.4790    3.0569   -0.6316 H   0  0  0  0  0  0  0  0  0  0  0  0
    0.0058    3.1044    0.9992 H   0  0  0  0  0  0  0  0  0  0  0  0
   -0.0150    1.1719    0.0079 C   0  0  0  0  0  0  0  0  0  0  0  0
    1.0940    0.3869   -0.0000 C   0  0  0  0  0  0  0  0  0  0  0  0
    2.0387    0.7016   -0.0033 H   0  0  0  0  0  0  0  0  0  0  0  0
    0.6686   -0.9194   -0.0019 N   0  0  0  0  0  0  0  0  0  0  0  0
   -0.6536   -0.9443   -0.0060 C   0  0  0  0  0  0  0  0  0  0  0  0
   -1.2211   -1.7614   -0.0116 H   0  0  0  0  0  0  0  0  0  0  0  0
   -1.0940    0.3049    0.0000 N   0  0  0  0  0  0  0  0  0  0  0  0
   -2.0528    0.5824   -0.0018 H   0  0  0  0  0  0  0  0  0  0  0  0
  1  5  1  0
  5  6  1  0
  5  9  2  0
  1  2  1  0
  1  3  1  0
  1  4  1  0
  6  7  1  0
  6  8  1  0
 10 14  1  0
 14 15  2  0
 15 17  1  0
 17 18  2  0
 18 20  1  0
 20 14  1  0
 10 11  1  0
 10 12  1  0
 10 13  1  0
 15 16  1  0
 18 19  1  0
 20 21  1  0
M  END
>  <PDB_ID>  (197) 
pdb3lxy

>  <RESIDUE_NAME>  (197) 
GLN   HID

>  <FRAG_NAME>  (197) 
ACEM   MIMD

>  <FRAG_ATOM_NUM>  (197) 
fragi: 9  fragj: 12

>  <atom.prop.CHAIN_ID>  (197) 
A A A A A A A A A Z Z Z Z Z Z Z Z Z Z Z Z

>  <atom.prop.IS_HEAVY_ATOM>  (197) 
1 0 0 0 1 1 0 0 1 1 0 0 0 1 1 0 1 1 0 1 0

>  <DIFUSE_FUNC_ATOM>  (197) 
n/a

>  <FINAL_SINGLE_POINT_ENERGY>  (197) 
0

>  <NONCOV_INTER_ENERGY_QM>  (197) 
0

>  <FF_Energy>  (197) 
4.96

>  <QM_Energy>  (197) 
10.73

>  <source>  (197) 
ACEM_MIMD

>  <Index>  (197) 
23997

$$$$
ACEM-pdb3lyc-J-ASN-231:MIMD-pdb3lyc-K-HID-96
     RDKit          3D

 21 20  0  0  0  0  0  0  0  0999 V2000
   -3.3048   -0.4197    3.8922 C   0  0  0  0  0  0  0  0  0  0  0  0
   -4.1523   -0.8905    3.6637 H   0  0  0  0  0  0  0  0  0  0  0  0
   -3.5013    0.4963    4.2302 H   0  0  0  0  0  0  0  0  0  0  0  0
   -2.8135   -0.9756    4.6908 H   0  0  0  0  0  0  0  0  0  0  0  0
   -2.4534   -0.3132    2.6522 C   0  0  0  0  0  0  0  0  0  0  0  0
   -3.0984   -0.0959    1.5076 N   0  0  0  0  0  0  0  0  0  0  0  0
   -4.0948   -0.0070    1.5076 H   0  0  0  0  0  0  0  0  0  0  0  0
   -2.5883   -0.0213    0.6526 H   0  0  0  0  0  0  0  0  0  0  0  0
   -1.2217   -0.3704    2.7227 O   0  0  0  0  0  0  0  0  0  0  0  0
   -0.1250    2.6553   -0.1409 C   0  0  0  0  0  0  0  0  0  0  0  0
   -0.9181    2.8589   -0.7315 H   0  0  0  0  0  0  0  0  0  0  0  0
    0.7049    2.9911   -0.6065 H   0  0  0  0  0  0  0  0  0  0  0  0
   -0.2401    3.1885    0.8029 H   0  0  0  0  0  0  0  0  0  0  0  0
   -0.0136    1.1657   -0.0053 C   0  0  0  0  0  0  0  0  0  0  0  0
    1.0875    0.3796   -0.0000 C   0  0  0  0  0  0  0  0  0  0  0  0
    2.0375    0.6924    0.0026 H   0  0  0  0  0  0  0  0  0  0  0  0
    0.6650   -0.9244    0.0014 N   0  0  0  0  0  0  0  0  0  0  0  0
   -0.6514   -0.9333    0.0039 C   0  0  0  0  0  0  0  0  0  0  0  0
   -1.2288   -1.7501    0.0093 H   0  0  0  0  0  0  0  0  0  0  0  0
   -1.0875    0.3125    0.0000 N   0  0  0  0  0  0  0  0  0  0  0  0
   -2.0485    0.5906    0.0000 H   0  0  0  0  0  0  0  0  0  0  0  0
  1  5  1  0
  5  6  1  0
  5  9  2  0
  1  2  1  0
  1  3  1  0
  1  4  1  0
  6  7  1  0
  6  8  1  0
 10 14  1  0
 14 15  2  0
 15 17  1  0
 17 18  2  0
 18 20  1  0
 20 14  1  0
 10 11  1  0
 10 12  1  0
 10 13  1  0
 15 16  1  0
 18 19  1  0
 20 21  1  0
M  END
>  <PDB_ID>  (198) 
pdb3lyc

>  <RESIDUE_NAME>  (198) 
ASN   HID

>  <FRAG_NAME>  (198) 
ACEM   MIMD

>  <FRAG_ATOM_NUM>  (198) 
fragi: 9  fragj: 12

>  <atom.prop.CHAIN_ID>  (198) 
A A A A A A A A A Z Z Z Z Z Z Z Z Z Z Z Z

>  <atom.prop.IS_HEAVY_ATOM>  (198) 
1 0 0 0 1 1 0 0 1 1 0 0 0 1 1 0 1 1 0 1 0

>  <DIFUSE_FUNC_ATOM>  (198) 
n/a

>  <FINAL_SINGLE_POINT_ENERGY>  (198) 
0

>  <NONCOV_INTER_ENERGY_QM>  (198) 
0

>  <FF_Energy>  (198) 
28.14

>  <QM_Energy>  (198) 
36.66

>  <source>  (198) 
ACEM_MIMD

>  <Index>  (198) 
24015

$$$$
ACEM-pdb4j4m-A-GLN-37:MIMD-pdb4j4m-A-HID-41
     RDKit          3D

 21 20  0  0  0  0  0  0  0  0999 V2000
   -3.0065   -1.8440    2.3966 C   0  0  0  0  0  0  0  0  0  0  0  0
   -2.9558   -1.0289    1.8099 H   0  0  0  0  0  0  0  0  0  0  0  0
   -2.1001   -2.0010    2.8047 H   0  0  0  0  0  0  0  0  0  0  0  0
   -3.7128   -1.6413    3.2017 H   0  0  0  0  0  0  0  0  0  0  0  0
   -3.3640   -3.0398    1.5339 C   0  0  0  0  0  0  0  0  0  0  0  0
   -2.6568   -3.2118    0.4253 N   0  0  0  0  0  0  0  0  0  0  0  0
   -2.8306   -3.9979   -0.1923 H   0  0  0  0  0  0  0  0  0  0  0  0
   -1.9257   -2.5350    0.2000 H   0  0  0  0  0  0  0  0  0  0  0  0
   -4.2882   -3.7953    1.8639 O   0  0  0  0  0  0  0  0  0  0  0  0
   -0.1826    2.6568    0.0639 C   0  0  0  0  0  0  0  0  0  0  0  0
   -1.1558    2.8624    0.2146 H   0  0  0  0  0  0  0  0  0  0  0  0
    0.0899    3.0389   -0.8262 H   0  0  0  0  0  0  0  0  0  0  0  0
    0.4047    3.1351    0.8477 H   0  0  0  0  0  0  0  0  0  0  0  0
   -0.0182    1.1688    0.0069 C   0  0  0  0  0  0  0  0  0  0  0  0
    1.0899    0.3896   -0.0000 C   0  0  0  0  0  0  0  0  0  0  0  0
    2.0353    0.7046   -0.0008 H   0  0  0  0  0  0  0  0  0  0  0  0
    0.6698   -0.9194   -0.0029 N   0  0  0  0  0  0  0  0  0  0  0  0
   -0.6515   -0.9431   -0.0040 C   0  0  0  0  0  0  0  0  0  0  0  0
   -1.2185   -1.7611   -0.0064 H   0  0  0  0  0  0  0  0  0  0  0  0
   -1.0899    0.3040   -0.0000 N   0  0  0  0  0  0  0  0  0  0  0  0
   -2.0526    0.5787   -0.0027 H   0  0  0  0  0  0  0  0  0  0  0  0
  1  5  1  0
  5  6  1  0
  5  9  2  0
  1  2  1  0
  1  3  1  0
  1  4  1  0
  6  7  1  0
  6  8  1  0
 10 14  1  0
 14 15  2  0
 15 17  1  0
 17 18  2  0
 18 20  1  0
 20 14  1  0
 10 11  1  0
 10 12  1  0
 10 13  1  0
 15 16  1  0
 18 19  1  0
 20 21  1  0
M  END
>  <PDB_ID>  (199) 
pdb4j4m

>  <RESIDUE_NAME>  (199) 
GLN   HID

>  <FRAG_NAME>  (199) 
ACEM   MIMD

>  <FRAG_ATOM_NUM>  (199) 
fragi: 9  fragj: 12

>  <atom.prop.CHAIN_ID>  (199) 
A A A A A A A A A Z Z Z Z Z Z Z Z Z Z Z Z

>  <atom.prop.IS_HEAVY_ATOM>  (199) 
1 0 0 0 1 1 0 0 1 1 0 0 0 1 1 0 1 1 0 1 0

>  <DIFUSE_FUNC_ATOM>  (199) 
n/a

>  <FINAL_SINGLE_POINT_ENERGY>  (199) 
0

>  <NONCOV_INTER_ENERGY_QM>  (199) 
0

>  <FF_Energy>  (199) 
4.8

>  <QM_Energy>  (199) 
18.23

>  <source>  (199) 
ACEM_MIMD

>  <Index>  (199) 
24115

$$$$
ACEM-pdb4job-A-GLN-279:MIMD-pdb4job-A-HID-350
     RDKit          3D

 21 20  0  0  0  0  0  0  0  0999 V2000
   -6.1850   -0.9408   -0.4448 C   0  0  0  0  0  0  0  0  0  0  0  0
   -6.9304   -0.5083   -0.9456 H   0  0  0  0  0  0  0  0  0  0  0  0
   -6.4597   -1.1071    0.4991 H   0  0  0  0  0  0  0  0  0  0  0  0
   -5.9391   -1.8910   -0.9189 H   0  0  0  0  0  0  0  0  0  0  0  0
   -4.9985    0.0096   -0.4392 C   0  0  0  0  0  0  0  0  0  0  0  0
   -3.8745   -0.4527    0.1017 N   0  0  0  0  0  0  0  0  0  0  0  0
   -3.0361    0.1207    0.1284 H   0  0  0  0  0  0  0  0  0  0  0  0
   -3.8685   -1.3936    0.4902 H   0  0  0  0  0  0  0  0  0  0  0  0
   -5.0894    1.1423   -0.9206 O   0  0  0  0  0  0  0  0  0  0  0  0
   -0.1735    2.6562    0.0028 C   0  0  0  0  0  0  0  0  0  0  0  0
    0.5541    3.0520    0.5731 H   0  0  0  0  0  0  0  0  0  0  0  0
   -1.0622    2.8802    0.4170 H   0  0  0  0  0  0  0  0  0  0  0  0
   -0.1251    3.1012   -0.9910 H   0  0  0  0  0  0  0  0  0  0  0  0
   -0.0162    1.1687    0.0033 C   0  0  0  0  0  0  0  0  0  0  0  0
    1.0910    0.3893   -0.0000 C   0  0  0  0  0  0  0  0  0  0  0  0
    2.0367    0.7038   -0.0004 H   0  0  0  0  0  0  0  0  0  0  0  0
    0.6689   -0.9189   -0.0015 N   0  0  0  0  0  0  0  0  0  0  0  0
   -0.6527   -0.9421   -0.0018 C   0  0  0  0  0  0  0  0  0  0  0  0
   -1.2196   -1.7606   -0.0022 H   0  0  0  0  0  0  0  0  0  0  0  0
   -1.0910    0.3031   -0.0000 N   0  0  0  0  0  0  0  0  0  0  0  0
   -2.0516    0.5806   -0.0012 H   0  0  0  0  0  0  0  0  0  0  0  0
  1  5  1  0
  5  6  1  0
  5  9  2  0
  1  2  1  0
  1  3  1  0
  1  4  1  0
  6  7  1  0
  6  8  1  0
 10 14  1  0
 14 15  2  0
 15 17  1  0
 17 18  2  0
 18 20  1  0
 20 14  1  0
 10 11  1  0
 10 12  1  0
 10 13  1  0
 15 16  1  0
 18 19  1  0
 20 21  1  0
M  END
>  <PDB_ID>  (200) 
pdb4job

>  <RESIDUE_NAME>  (200) 
GLN   HID

>  <FRAG_NAME>  (200) 
ACEM   MIMD

>  <FRAG_ATOM_NUM>  (200) 
fragi: 9  fragj: 12

>  <atom.prop.CHAIN_ID>  (200) 
A A A A A A A A A Z Z Z Z Z Z Z Z Z Z Z Z

>  <atom.prop.IS_HEAVY_ATOM>  (200) 
1 0 0 0 1 1 0 0 1 1 0 0 0 1 1 0 1 1 0 1 0

>  <DIFUSE_FUNC_ATOM>  (200) 
n/a

>  <FINAL_SINGLE_POINT_ENERGY>  (200) 
0

>  <NONCOV_INTER_ENERGY_QM>  (200) 
0

>  <FF_Energy>  (200) 
8.73

>  <QM_Energy>  (200) 
19.41

>  <source>  (200) 
ACEM_MIMD

>  <Index>  (200) 
24570

$$$$
ACEM-pdb3mzn-A-ASN-338:MIMD-pdb3mzn-A-HID-27
     RDKit          3D

 21 20  0  0  0  0  0  0  0  0999 V2000
   -5.1042   -1.4019   -2.5788 C   0  0  0  0  0  0  0  0  0  0  0  0
   -4.5129   -1.1284   -3.3311 H   0  0  0  0  0  0  0  0  0  0  0  0
   -5.9296   -0.8464   -2.5688 H   0  0  0  0  0  0  0  0  0  0  0  0
   -5.3948   -2.4409   -2.7341 H   0  0  0  0  0  0  0  0  0  0  0  0
   -4.3577   -1.1879   -1.2702 C   0  0  0  0  0  0  0  0  0  0  0  0
   -3.0259   -1.2412   -1.3223 N   0  0  0  0  0  0  0  0  0  0  0  0
   -2.5765   -1.4091   -2.2024 H   0  0  0  0  0  0  0  0  0  0  0  0
   -2.4860   -1.1135   -0.4965 H   0  0  0  0  0  0  0  0  0  0  0  0
   -4.9708   -0.9531   -0.2339 O   0  0  0  0  0  0  0  0  0  0  0  0
   -0.1699    2.6587    0.0099 C   0  0  0  0  0  0  0  0  0  0  0  0
   -0.4027    2.9496    0.9451 H   0  0  0  0  0  0  0  0  0  0  0  0
   -0.9382    2.8923   -0.5972 H   0  0  0  0  0  0  0  0  0  0  0  0
    0.7219    3.1915   -0.3203 H   0  0  0  0  0  0  0  0  0  0  0  0
   -0.0138    1.1678    0.0103 C   0  0  0  0  0  0  0  0  0  0  0  0
    1.0932    0.3876   -0.0000 C   0  0  0  0  0  0  0  0  0  0  0  0
    2.0387    0.6995   -0.0012 H   0  0  0  0  0  0  0  0  0  0  0  0
    0.6681   -0.9208   -0.0073 N   0  0  0  0  0  0  0  0  0  0  0  0
   -0.6544   -0.9417   -0.0030 C   0  0  0  0  0  0  0  0  0  0  0  0
   -1.2235   -1.7587   -0.0010 H   0  0  0  0  0  0  0  0  0  0  0  0
   -1.0932    0.3072   -0.0000 N   0  0  0  0  0  0  0  0  0  0  0  0
   -2.0514    0.5852   -0.0049 H   0  0  0  0  0  0  0  0  0  0  0  0
  1  5  1  0
  5  6  1  0
  5  9  2  0
  1  2  1  0
  1  3  1  0
  1  4  1  0
  6  7  1  0
  6  8  1  0
 10 14  1  0
 14 15  2  0
 15 17  1  0
 17 18  2  0
 18 20  1  0
 20 14  1  0
 10 11  1  0
 10 12  1  0
 10 13  1  0
 15 16  1  0
 18 19  1  0
 20 21  1  0
M  END
>  <PDB_ID>  (201) 
pdb3mzn

>  <RESIDUE_NAME>  (201) 
ASN   HID

>  <FRAG_NAME>  (201) 
ACEM   MIMD

>  <FRAG_ATOM_NUM>  (201) 
fragi: 9  fragj: 12

>  <atom.prop.CHAIN_ID>  (201) 
A A A A A A A A A Z Z Z Z Z Z Z Z Z Z Z Z

>  <atom.prop.IS_HEAVY_ATOM>  (201) 
1 0 0 0 1 1 0 0 1 1 0 0 0 1 1 0 1 1 0 1 0

>  <DIFUSE_FUNC_ATOM>  (201) 
n/a

>  <FINAL_SINGLE_POINT_ENERGY>  (201) 
0

>  <NONCOV_INTER_ENERGY_QM>  (201) 
0

>  <FF_Energy>  (201) 
5.36

>  <QM_Energy>  (201) 
11.08

>  <source>  (201) 
ACEM_MIMD

>  <Index>  (201) 
24866

$$$$
ACEM-pdb4k71-B-ASN-215:MIMD-pdb4k71-B-HID-249
     RDKit          3D

 21 20  0  0  0  0  0  0  0  0999 V2000
   -4.7567    3.4866    2.3796 C   0  0  0  0  0  0  0  0  0  0  0  0
   -4.6295    3.8242    3.3069 H   0  0  0  0  0  0  0  0  0  0  0  0
   -5.6123    2.9844    2.3071 H   0  0  0  0  0  0  0  0  0  0  0  0
   -4.8188    4.3489    1.7157 H   0  0  0  0  0  0  0  0  0  0  0  0
   -3.6049    2.5490    2.0352 C   0  0  0  0  0  0  0  0  0  0  0  0
   -3.4880    2.2074    0.7591 N   0  0  0  0  0  0  0  0  0  0  0  0
   -4.1324    2.5670    0.0819 H   0  0  0  0  0  0  0  0  0  0  0  0
   -2.7561    1.5907    0.4688 H   0  0  0  0  0  0  0  0  0  0  0  0
   -2.8493    2.1183    2.9129 O   0  0  0  0  0  0  0  0  0  0  0  0
   -0.1501    2.6591   -0.0038 C   0  0  0  0  0  0  0  0  0  0  0  0
    0.7142    3.0565    0.3206 H   0  0  0  0  0  0  0  0  0  0  0  0
   -0.8805    2.9098    0.6405 H   0  0  0  0  0  0  0  0  0  0  0  0
   -0.3854    3.0806   -0.9810 H   0  0  0  0  0  0  0  0  0  0  0  0
   -0.0136    1.1673   -0.0059 C   0  0  0  0  0  0  0  0  0  0  0  0
    1.0916    0.3843    0.0000 C   0  0  0  0  0  0  0  0  0  0  0  0
    2.0379    0.6981    0.0019 H   0  0  0  0  0  0  0  0  0  0  0  0
    0.6676   -0.9202    0.0041 N   0  0  0  0  0  0  0  0  0  0  0  0
   -0.6540   -0.9402    0.0018 C   0  0  0  0  0  0  0  0  0  0  0  0
   -1.2237   -1.7564    0.0024 H   0  0  0  0  0  0  0  0  0  0  0  0
   -1.0916    0.3089   -0.0000 N   0  0  0  0  0  0  0  0  0  0  0  0
   -2.0506    0.5869    0.0015 H   0  0  0  0  0  0  0  0  0  0  0  0
  1  5  1  0
  5  6  1  0
  5  9  2  0
  1  2  1  0
  1  3  1  0
  1  4  1  0
  6  7  1  0
  6  8  1  0
 10 14  1  0
 14 15  2  0
 15 17  1  0
 17 18  2  0
 18 20  1  0
 20 14  1  0
 10 11  1  0
 10 12  1  0
 10 13  1  0
 15 16  1  0
 18 19  1  0
 20 21  1  0
M  END
>  <PDB_ID>  (202) 
pdb4k71

>  <RESIDUE_NAME>  (202) 
ASN   HID

>  <FRAG_NAME>  (202) 
ACEM   MIMD

>  <FRAG_ATOM_NUM>  (202) 
fragi: 9  fragj: 12

>  <atom.prop.CHAIN_ID>  (202) 
A A A A A A A A A Z Z Z Z Z Z Z Z Z Z Z Z

>  <atom.prop.IS_HEAVY_ATOM>  (202) 
1 0 0 0 1 1 0 0 1 1 0 0 0 1 1 0 1 1 0 1 0

>  <DIFUSE_FUNC_ATOM>  (202) 
n/a

>  <FINAL_SINGLE_POINT_ENERGY>  (202) 
0

>  <NONCOV_INTER_ENERGY_QM>  (202) 
0

>  <FF_Energy>  (202) 
4.6

>  <QM_Energy>  (202) 
10.02

>  <source>  (202) 
ACEM_MIMD

>  <Index>  (202) 
24919

$$$$
ACEM-pdb4k71-E-ASN-215:MIMD-pdb4k71-E-HID-249
     RDKit          3D

 21 20  0  0  0  0  0  0  0  0999 V2000
   -5.5886    2.7201   -0.3558 C   0  0  0  0  0  0  0  0  0  0  0  0
   -6.0516    2.8684    0.5140 H   0  0  0  0  0  0  0  0  0  0  0  0
   -6.1290    2.1125   -0.9316 H   0  0  0  0  0  0  0  0  0  0  0  0
   -5.4756    3.6783   -0.8630 H   0  0  0  0  0  0  0  0  0  0  0  0
   -4.2400    2.0094   -0.0562 C   0  0  0  0  0  0  0  0  0  0  0  0
   -3.3723    1.9297   -1.0443 N   0  0  0  0  0  0  0  0  0  0  0  0
   -3.6031    2.3290   -1.9399 H   0  0  0  0  0  0  0  0  0  0  0  0
   -2.4909    1.4807   -0.9150 H   0  0  0  0  0  0  0  0  0  0  0  0
   -4.0269    1.5019    1.0539 O   0  0  0  0  0  0  0  0  0  0  0  0
   -0.1880    2.6540    0.0195 C   0  0  0  0  0  0  0  0  0  0  0  0
    0.4528    3.0341    0.6979 H   0  0  0  0  0  0  0  0  0  0  0  0
   -1.1271    2.8597    0.3239 H   0  0  0  0  0  0  0  0  0  0  0  0
   -0.0140    3.1357   -0.9427 H   0  0  0  0  0  0  0  0  0  0  0  0
   -0.0190    1.1659   -0.0016 C   0  0  0  0  0  0  0  0  0  0  0  0
    1.0903    0.3909    0.0000 C   0  0  0  0  0  0  0  0  0  0  0  0
    2.0343    0.7079    0.0015 H   0  0  0  0  0  0  0  0  0  0  0  0
    0.6699   -0.9156    0.0002 N   0  0  0  0  0  0  0  0  0  0  0  0
   -0.6509   -0.9425    0.0014 C   0  0  0  0  0  0  0  0  0  0  0  0
   -1.2155   -1.7628    0.0044 H   0  0  0  0  0  0  0  0  0  0  0  0
   -1.0903    0.3013    0.0000 N   0  0  0  0  0  0  0  0  0  0  0  0
   -2.0531    0.5772   -0.0008 H   0  0  0  0  0  0  0  0  0  0  0  0
  1  5  1  0
  5  6  1  0
  5  9  2  0
  1  2  1  0
  1  3  1  0
  1  4  1  0
  6  7  1  0
  6  8  1  0
 10 14  1  0
 14 15  2  0
 15 17  1  0
 17 18  2  0
 18 20  1  0
 20 14  1  0
 10 11  1  0
 10 12  1  0
 10 13  1  0
 15 16  1  0
 18 19  1  0
 20 21  1  0
M  END
>  <PDB_ID>  (203) 
pdb4k71

>  <RESIDUE_NAME>  (203) 
ASN   HID

>  <FRAG_NAME>  (203) 
ACEM   MIMD

>  <FRAG_ATOM_NUM>  (203) 
fragi: 9  fragj: 12

>  <atom.prop.CHAIN_ID>  (203) 
A A A A A A A A A Z Z Z Z Z Z Z Z Z Z Z Z

>  <atom.prop.IS_HEAVY_ATOM>  (203) 
1 0 0 0 1 1 0 0 1 1 0 0 0 1 1 0 1 1 0 1 0

>  <DIFUSE_FUNC_ATOM>  (203) 
n/a

>  <FINAL_SINGLE_POINT_ENERGY>  (203) 
0

>  <NONCOV_INTER_ENERGY_QM>  (203) 
0

>  <FF_Energy>  (203) 
-0.13

>  <QM_Energy>  (203) 
5.34

>  <source>  (203) 
ACEM_MIMD

>  <Index>  (203) 
24922

$$$$
ACEM-pdb4kop-A-ASN-207:MIMD-pdb4kop-A-HID-202
     RDKit          3D

 21 20  0  0  0  0  0  0  0  0999 V2000
   -4.4435   -0.3749   -1.4757 C   0  0  0  0  0  0  0  0  0  0  0  0
   -4.5227   -1.1165   -0.8558 H   0  0  0  0  0  0  0  0  0  0  0  0
   -3.5219   -0.2793   -1.7635 H   0  0  0  0  0  0  0  0  0  0  0  0
   -5.0676   -0.5723   -2.3473 H   0  0  0  0  0  0  0  0  0  0  0  0
   -4.8415    0.9051   -0.7335 C   0  0  0  0  0  0  0  0  0  0  0  0
   -3.8703    1.5371   -0.0867 N   0  0  0  0  0  0  0  0  0  0  0  0
   -4.0414    2.2610    0.3451 H   0  0  0  0  0  0  0  0  0  0  0  0
   -3.0696    1.2233   -0.1006 H   0  0  0  0  0  0  0  0  0  0  0  0
   -6.0082    1.3049   -0.7224 O   0  0  0  0  0  0  0  0  0  0  0  0
   -0.1790    2.6378   -0.0047 C   0  0  0  0  0  0  0  0  0  0  0  0
    0.6873    3.0415    0.1617 H   0  0  0  0  0  0  0  0  0  0  0  0
   -0.8010    2.8814    0.6983 H   0  0  0  0  0  0  0  0  0  0  0  0
   -0.5617    2.9962   -0.9603 H   0  0  0  0  0  0  0  0  0  0  0  0
   -0.0124    1.1648    0.0183 C   0  0  0  0  0  0  0  0  0  0  0  0
    1.0914    0.3859    0.0000 C   0  0  0  0  0  0  0  0  0  0  0  0
    1.9741    0.6795    0.0013 H   0  0  0  0  0  0  0  0  0  0  0  0
    0.6678   -0.9189   -0.0106 N   0  0  0  0  0  0  0  0  0  0  0  0
   -0.6553   -0.9398   -0.0077 C   0  0  0  0  0  0  0  0  0  0  0  0
   -1.1872   -1.7028   -0.0098 H   0  0  0  0  0  0  0  0  0  0  0  0
   -1.0914    0.3082   -0.0000 N   0  0  0  0  0  0  0  0  0  0  0  0
   -2.0503    0.5875   -0.0072 H   0  0  0  0  0  0  0  0  0  0  0  0
  1  5  1  0
  5  6  1  0
  5  9  2  0
  1  2  1  0
  1  3  1  0
  1  4  1  0
  6  7  1  0
  6  8  1  0
 10 14  1  0
 14 15  2  0
 15 17  1  0
 17 18  2  0
 18 20  1  0
 20 14  1  0
 10 11  1  0
 10 12  1  0
 10 13  1  0
 15 16  1  0
 18 19  1  0
 20 21  1  0
M  END
>  <PDB_ID>  (204) 
pdb4kop

>  <RESIDUE_NAME>  (204) 
ASN   HID

>  <FRAG_NAME>  (204) 
ACEM   MIMD

>  <FRAG_ATOM_NUM>  (204) 
fragi: 9  fragj: 12

>  <atom.prop.CHAIN_ID>  (204) 
A A A A A A A A A Z Z Z Z Z Z Z Z Z Z Z Z

>  <atom.prop.IS_HEAVY_ATOM>  (204) 
1 0 0 0 1 1 0 0 1 1 0 0 0 1 1 0 1 1 0 1 0

>  <DIFUSE_FUNC_ATOM>  (204) 
n/a

>  <FINAL_SINGLE_POINT_ENERGY>  (204) 
0

>  <NONCOV_INTER_ENERGY_QM>  (204) 
0

>  <FF_Energy>  (204) 
6.49

>  <QM_Energy>  (204) 
13.72

>  <source>  (204) 
ACEM_MIMD

>  <Index>  (204) 
25287

$$$$
ACEM-pdb4ktp-A-ASN-19:MIMD-pdb4ktp-A-HID-7
     RDKit          3D

 21 20  0  0  0  0  0  0  0  0999 V2000
   -5.1805    2.7470    2.3445 C   0  0  0  0  0  0  0  0  0  0  0  0
   -5.7402    2.2212    2.9706 H   0  0  0  0  0  0  0  0  0  0  0  0
   -5.7364    3.3463    1.7858 H   0  0  0  0  0  0  0  0  0  0  0  0
   -4.4802    3.3518    2.9205 H   0  0  0  0  0  0  0  0  0  0  0  0
   -4.4424    1.7846    1.4332 C   0  0  0  0  0  0  0  0  0  0  0  0
   -3.1847    2.0716    1.1664 N   0  0  0  0  0  0  0  0  0  0  0  0
   -2.7585    2.8896    1.5643 H   0  0  0  0  0  0  0  0  0  0  0  0
   -2.6440    1.4783    0.5659 H   0  0  0  0  0  0  0  0  0  0  0  0
   -5.0346    0.8055    0.9195 O   0  0  0  0  0  0  0  0  0  0  0  0
   -0.2038    2.7289   -0.0004 C   0  0  0  0  0  0  0  0  0  0  0  0
    0.6067    3.1068    0.4563 H   0  0  0  0  0  0  0  0  0  0  0  0
   -1.0120    2.9268    0.5625 H   0  0  0  0  0  0  0  0  0  0  0  0
   -0.3191    3.1833   -0.9844 H   0  0  0  0  0  0  0  0  0  0  0  0
   -0.0337    1.1853   -0.0152 C   0  0  0  0  0  0  0  0  0  0  0  0
    1.1164    0.3912   -0.0000 C   0  0  0  0  0  0  0  0  0  0  0  0
    2.0432    0.7271    0.0042 H   0  0  0  0  0  0  0  0  0  0  0  0
    0.6994   -0.9218    0.0093 N   0  0  0  0  0  0  0  0  0  0  0  0
   -0.6657   -0.9655    0.0059 C   0  0  0  0  0  0  0  0  0  0  0  0
   -1.2105   -1.7749    0.0084 H   0  0  0  0  0  0  0  0  0  0  0  0
   -1.1164    0.3110    0.0000 N   0  0  0  0  0  0  0  0  0  0  0  0
   -2.0725    0.5747    0.0050 H   0  0  0  0  0  0  0  0  0  0  0  0
  1  5  1  0
  5  6  1  0
  5  9  2  0
  1  2  1  0
  1  3  1  0
  1  4  1  0
  6  7  1  0
  6  8  1  0
 10 14  1  0
 14 15  2  0
 15 17  1  0
 17 18  2  0
 18 20  1  0
 20 14  1  0
 10 11  1  0
 10 12  1  0
 10 13  1  0
 15 16  1  0
 18 19  1  0
 20 21  1  0
M  END
>  <PDB_ID>  (205) 
pdb4ktp

>  <RESIDUE_NAME>  (205) 
ASN   HID

>  <FRAG_NAME>  (205) 
ACEM   MIMD

>  <FRAG_ATOM_NUM>  (205) 
fragi: 9  fragj: 12

>  <atom.prop.CHAIN_ID>  (205) 
A A A A A A A A A Z Z Z Z Z Z Z Z Z Z Z Z

>  <atom.prop.IS_HEAVY_ATOM>  (205) 
1 0 0 0 1 1 0 0 1 1 0 0 0 1 1 0 1 1 0 1 0

>  <DIFUSE_FUNC_ATOM>  (205) 
n/a

>  <FINAL_SINGLE_POINT_ENERGY>  (205) 
0

>  <NONCOV_INTER_ENERGY_QM>  (205) 
0

>  <FF_Energy>  (205) 
6.67

>  <QM_Energy>  (205) 
14.77

>  <source>  (205) 
ACEM_MIMD

>  <Index>  (205) 
25392

$$$$
ACEM-pdb3nra-B-GLN-218:MIMD-pdb3nra-B-HID-232
     RDKit          3D

 21 20  0  0  0  0  0  0  0  0999 V2000
   -5.6588    0.3134   -2.5733 C   0  0  0  0  0  0  0  0  0  0  0  0
   -5.5205    0.5295   -3.5326 H   0  0  0  0  0  0  0  0  0  0  0  0
   -6.4672    0.7724   -2.2236 H   0  0  0  0  0  0  0  0  0  0  0  0
   -5.8209   -0.7614   -2.4916 H   0  0  0  0  0  0  0  0  0  0  0  0
   -4.4311    0.7946   -1.7757 C   0  0  0  0  0  0  0  0  0  0  0  0
   -3.9379   -0.0583   -0.8581 N   0  0  0  0  0  0  0  0  0  0  0  0
   -3.1327    0.1905   -0.3165 H   0  0  0  0  0  0  0  0  0  0  0  0
   -4.4054   -0.9515   -0.7349 H   0  0  0  0  0  0  0  0  0  0  0  0
   -3.9224    1.9005   -1.9981 O   0  0  0  0  0  0  0  0  0  0  0  0
   -0.1845    2.6456   -0.0661 C   0  0  0  0  0  0  0  0  0  0  0  0
    0.5787    3.0613    0.4446 H   0  0  0  0  0  0  0  0  0  0  0  0
   -1.0433    2.8797    0.4062 H   0  0  0  0  0  0  0  0  0  0  0  0
   -0.2087    3.0668   -1.0711 H   0  0  0  0  0  0  0  0  0  0  0  0
   -0.0192    1.1680   -0.0389 C   0  0  0  0  0  0  0  0  0  0  0  0
    1.0934    0.3926    0.0000 C   0  0  0  0  0  0  0  0  0  0  0  0
    2.0359    0.7076    0.0094 H   0  0  0  0  0  0  0  0  0  0  0  0
    0.6716   -0.9209    0.0253 N   0  0  0  0  0  0  0  0  0  0  0  0
   -0.6524   -0.9441    0.0136 C   0  0  0  0  0  0  0  0  0  0  0  0
   -1.2196   -1.7621    0.0162 H   0  0  0  0  0  0  0  0  0  0  0  0
   -1.0934    0.3043   -0.0000 N   0  0  0  0  0  0  0  0  0  0  0  0
   -2.0545    0.5792    0.0146 H   0  0  0  0  0  0  0  0  0  0  0  0
  1  5  1  0
  5  6  1  0
  5  9  2  0
  1  2  1  0
  1  3  1  0
  1  4  1  0
  6  7  1  0
  6  8  1  0
 10 14  1  0
 14 15  2  0
 15 17  1  0
 17 18  2  0
 18 20  1  0
 20 14  1  0
 10 11  1  0
 10 12  1  0
 10 13  1  0
 15 16  1  0
 18 19  1  0
 20 21  1  0
M  END
>  <PDB_ID>  (206) 
pdb3nra

>  <RESIDUE_NAME>  (206) 
GLN   HID

>  <FRAG_NAME>  (206) 
ACEM   MIMD

>  <FRAG_ATOM_NUM>  (206) 
fragi: 9  fragj: 12

>  <atom.prop.CHAIN_ID>  (206) 
A A A A A A A A A Z Z Z Z Z Z Z Z Z Z Z Z

>  <atom.prop.IS_HEAVY_ATOM>  (206) 
1 0 0 0 1 1 0 0 1 1 0 0 0 1 1 0 1 1 0 1 0

>  <DIFUSE_FUNC_ATOM>  (206) 
n/a

>  <FINAL_SINGLE_POINT_ENERGY>  (206) 
0

>  <NONCOV_INTER_ENERGY_QM>  (206) 
0

>  <FF_Energy>  (206) 
5.93

>  <QM_Energy>  (206) 
13.88

>  <source>  (206) 
ACEM_MIMD

>  <Index>  (206) 
25680

$$$$
ACEM-pdb4lbq-C-ASN-34:MIMD-pdb4lbq-C-HID-45
     RDKit          3D

 21 20  0  0  0  0  0  0  0  0999 V2000
   -5.6970    2.4266    0.4386 C   0  0  0  0  0  0  0  0  0  0  0  0
   -6.6093    2.0235    0.4636 H   0  0  0  0  0  0  0  0  0  0  0  0
   -5.6774    3.1823   -0.2131 H   0  0  0  0  0  0  0  0  0  0  0  0
   -5.4664    2.8198    1.4287 H   0  0  0  0  0  0  0  0  0  0  0  0
   -4.7141    1.3664   -0.0207 C   0  0  0  0  0  0  0  0  0  0  0  0
   -3.4566    1.5167    0.3882 N   0  0  0  0  0  0  0  0  0  0  0  0
   -3.2084    2.2917    0.9690 H   0  0  0  0  0  0  0  0  0  0  0  0
   -2.7594    0.8538    0.1150 H   0  0  0  0  0  0  0  0  0  0  0  0
   -5.0718    0.4301   -0.7359 O   0  0  0  0  0  0  0  0  0  0  0  0
   -0.1685    2.6578   -0.0027 C   0  0  0  0  0  0  0  0  0  0  0  0
   -0.7360    2.9126   -0.7962 H   0  0  0  0  0  0  0  0  0  0  0  0
    0.7448    3.0669   -0.1257 H   0  0  0  0  0  0  0  0  0  0  0  0
   -0.6196    3.0660    0.9016 H   0  0  0  0  0  0  0  0  0  0  0  0
   -0.0168    1.1675    0.0060 C   0  0  0  0  0  0  0  0  0  0  0  0
    1.0911    0.3884    0.0000 C   0  0  0  0  0  0  0  0  0  0  0  0
    2.0360    0.7031   -0.0009 H   0  0  0  0  0  0  0  0  0  0  0  0
    0.6683   -0.9182   -0.0031 N   0  0  0  0  0  0  0  0  0  0  0  0
   -0.6515   -0.9424   -0.0028 C   0  0  0  0  0  0  0  0  0  0  0  0
   -1.2189   -1.7605   -0.0033 H   0  0  0  0  0  0  0  0  0  0  0  0
   -1.0911    0.3046    0.0000 N   0  0  0  0  0  0  0  0  0  0  0  0
   -2.0517    0.5801   -0.0027 H   0  0  0  0  0  0  0  0  0  0  0  0
  1  5  1  0
  5  6  1  0
  5  9  2  0
  1  2  1  0
  1  3  1  0
  1  4  1  0
  6  7  1  0
  6  8  1  0
 10 14  1  0
 14 15  2  0
 15 17  1  0
 17 18  2  0
 18 20  1  0
 20 14  1  0
 10 11  1  0
 10 12  1  0
 10 13  1  0
 15 16  1  0
 18 19  1  0
 20 21  1  0
M  END
>  <PDB_ID>  (207) 
pdb4lbq

>  <RESIDUE_NAME>  (207) 
ASN   HID

>  <FRAG_NAME>  (207) 
ACEM   MIMD

>  <FRAG_ATOM_NUM>  (207) 
fragi: 9  fragj: 12

>  <atom.prop.CHAIN_ID>  (207) 
A A A A A A A A A Z Z Z Z Z Z Z Z Z Z Z Z

>  <atom.prop.IS_HEAVY_ATOM>  (207) 
1 0 0 0 1 1 0 0 1 1 0 0 0 1 1 0 1 1 0 1 0

>  <DIFUSE_FUNC_ATOM>  (207) 
n/a

>  <FINAL_SINGLE_POINT_ENERGY>  (207) 
0

>  <NONCOV_INTER_ENERGY_QM>  (207) 
0

>  <FF_Energy>  (207) 
20.67

>  <QM_Energy>  (207) 
58.46

>  <source>  (207) 
ACEM_MIMD

>  <Index>  (207) 
25705

$$$$
ACEM-pdb3o0d-C-GLN-291:MIMD-pdb3o0d-C-HID-227
     RDKit          3D

 21 20  0  0  0  0  0  0  0  0999 V2000
   -2.5193   -3.2341    2.9628 C   0  0  0  0  0  0  0  0  0  0  0  0
   -2.3514   -3.7903    3.7359 H   0  0  0  0  0  0  0  0  0  0  0  0
   -3.4304   -2.9254    2.8667 H   0  0  0  0  0  0  0  0  0  0  0  0
   -1.8400   -2.3817    2.9678 H   0  0  0  0  0  0  0  0  0  0  0  0
   -2.1761   -4.1076    1.6699 C   0  0  0  0  0  0  0  0  0  0  0  0
   -2.1033   -3.4512    0.4738 N   0  0  0  0  0  0  0  0  0  0  0  0
   -1.8834   -3.9455   -0.3362 H   0  0  0  0  0  0  0  0  0  0  0  0
   -2.2879   -2.4527    0.4841 H   0  0  0  0  0  0  0  0  0  0  0  0
   -1.9491   -5.3229    1.7772 O   0  0  0  0  0  0  0  0  0  0  0  0
   -0.1252    2.6768   -0.0500 C   0  0  0  0  0  0  0  0  0  0  0  0
    0.1257    2.9999    0.8800 H   0  0  0  0  0  0  0  0  0  0  0  0
   -1.1008    2.9187   -0.1944 H   0  0  0  0  0  0  0  0  0  0  0  0
    0.4835    3.2026   -0.7857 H   0  0  0  0  0  0  0  0  0  0  0  0
   -0.0240    1.1665   -0.0519 C   0  0  0  0  0  0  0  0  0  0  0  0
    1.0891    0.3833    0.0000 C   0  0  0  0  0  0  0  0  0  0  0  0
    2.0329    0.7032    0.0111 H   0  0  0  0  0  0  0  0  0  0  0  0
    0.6708   -0.9241    0.0350 N   0  0  0  0  0  0  0  0  0  0  0  0
   -0.6468   -0.9425    0.0169 C   0  0  0  0  0  0  0  0  0  0  0  0
   -1.2230   -1.7540    0.0179 H   0  0  0  0  0  0  0  0  0  0  0  0
   -1.0891    0.3167   -0.0000 N   0  0  0  0  0  0  0  0  0  0  0  0
   -2.0525    0.5817    0.0213 H   0  0  0  0  0  0  0  0  0  0  0  0
  1  5  1  0
  5  6  1  0
  5  9  2  0
  1  2  1  0
  1  3  1  0
  1  4  1  0
  6  7  1  0
  6  8  1  0
 10 14  1  0
 14 15  2  0
 15 17  1  0
 17 18  2  0
 18 20  1  0
 20 14  1  0
 10 11  1  0
 10 12  1  0
 10 13  1  0
 15 16  1  0
 18 19  1  0
 20 21  1  0
M  END
>  <PDB_ID>  (208) 
pdb3o0d

>  <RESIDUE_NAME>  (208) 
GLN   HID

>  <FRAG_NAME>  (208) 
ACEM   MIMD

>  <FRAG_ATOM_NUM>  (208) 
fragi: 9  fragj: 12

>  <atom.prop.CHAIN_ID>  (208) 
A A A A A A A A A Z Z Z Z Z Z Z Z Z Z Z Z

>  <atom.prop.IS_HEAVY_ATOM>  (208) 
1 0 0 0 1 1 0 0 1 1 0 0 0 1 1 0 1 1 0 1 0

>  <DIFUSE_FUNC_ATOM>  (208) 
n/a

>  <FINAL_SINGLE_POINT_ENERGY>  (208) 
0

>  <NONCOV_INTER_ENERGY_QM>  (208) 
0

>  <FF_Energy>  (208) 
6.76

>  <QM_Energy>  (208) 
12.16

>  <source>  (208) 
ACEM_MIMD

>  <Index>  (208) 
25967

$$$$
ACEM-pdb4lua-A-GLN-71:MIMD-pdb4lua-A-HID-79
     RDKit          3D

 21 20  0  0  0  0  0  0  0  0999 V2000
   -4.1655    2.2128    1.1710 C   0  0  0  0  0  0  0  0  0  0  0  0
   -3.3628    2.4251    0.6189 H   0  0  0  0  0  0  0  0  0  0  0  0
   -3.8873    1.9771    2.0989 H   0  0  0  0  0  0  0  0  0  0  0  0
   -4.8009    3.0974    1.2137 H   0  0  0  0  0  0  0  0  0  0  0  0
   -4.8699    0.9916    0.5506 C   0  0  0  0  0  0  0  0  0  0  0  0
   -4.1006   -0.0556    0.2655 N   0  0  0  0  0  0  0  0  0  0  0  0
   -4.4990   -0.8943   -0.1298 H   0  0  0  0  0  0  0  0  0  0  0  0
   -3.1021    0.0055    0.4546 H   0  0  0  0  0  0  0  0  0  0  0  0
   -6.0855    0.9972    0.3390 O   0  0  0  0  0  0  0  0  0  0  0  0
   -0.1685    2.6544   -0.0009 C   0  0  0  0  0  0  0  0  0  0  0  0
   -1.0310    2.8811    0.4630 H   0  0  0  0  0  0  0  0  0  0  0  0
   -0.2248    2.9701   -0.9538 H   0  0  0  0  0  0  0  0  0  0  0  0
    0.6518    3.1705    0.4977 H   0  0  0  0  0  0  0  0  0  0  0  0
   -0.0159    1.1670   -0.0076 C   0  0  0  0  0  0  0  0  0  0  0  0
    1.0912    0.3885   -0.0000 C   0  0  0  0  0  0  0  0  0  0  0  0
    2.0368    0.7023    0.0023 H   0  0  0  0  0  0  0  0  0  0  0  0
    0.6680   -0.9181    0.0049 N   0  0  0  0  0  0  0  0  0  0  0  0
   -0.6522   -0.9419    0.0027 C   0  0  0  0  0  0  0  0  0  0  0  0
   -1.2194   -1.7605    0.0044 H   0  0  0  0  0  0  0  0  0  0  0  0
   -1.0912    0.3044    0.0000 N   0  0  0  0  0  0  0  0  0  0  0  0
   -2.0516    0.5815    0.0021 H   0  0  0  0  0  0  0  0  0  0  0  0
  1  5  1  0
  5  6  1  0
  5  9  2  0
  1  2  1  0
  1  3  1  0
  1  4  1  0
  6  7  1  0
  6  8  1  0
 10 14  1  0
 14 15  2  0
 15 17  1  0
 17 18  2  0
 18 20  1  0
 20 14  1  0
 10 11  1  0
 10 12  1  0
 10 13  1  0
 15 16  1  0
 18 19  1  0
 20 21  1  0
M  END
>  <PDB_ID>  (209) 
pdb4lua

>  <RESIDUE_NAME>  (209) 
GLN   HID

>  <FRAG_NAME>  (209) 
ACEM   MIMD

>  <FRAG_ATOM_NUM>  (209) 
fragi: 9  fragj: 12

>  <atom.prop.CHAIN_ID>  (209) 
A A A A A A A A A Z Z Z Z Z Z Z Z Z Z Z Z

>  <atom.prop.IS_HEAVY_ATOM>  (209) 
1 0 0 0 1 1 0 0 1 1 0 0 0 1 1 0 1 1 0 1 0

>  <DIFUSE_FUNC_ATOM>  (209) 
n/a

>  <FINAL_SINGLE_POINT_ENERGY>  (209) 
0

>  <NONCOV_INTER_ENERGY_QM>  (209) 
0

>  <FF_Energy>  (209) 
5.49

>  <QM_Energy>  (209) 
10.83

>  <source>  (209) 
ACEM_MIMD

>  <Index>  (209) 
26076

$$$$
ACEM-pdb4m56-B-GLN-12:MIMD-pdb4m56-B-HID-331
     RDKit          3D

 21 20  0  0  0  0  0  0  0  0999 V2000
   -5.1139    1.9076    3.1509 C   0  0  0  0  0  0  0  0  0  0  0  0
   -4.5762    2.6246    3.6092 H   0  0  0  0  0  0  0  0  0  0  0  0
   -5.0851    1.0771    3.7201 H   0  0  0  0  0  0  0  0  0  0  0  0
   -6.1492    2.2437    3.0933 H   0  0  0  0  0  0  0  0  0  0  0  0
   -4.4738    1.6032    1.8130 C   0  0  0  0  0  0  0  0  0  0  0  0
   -3.1966    1.3492    1.8307 N   0  0  0  0  0  0  0  0  0  0  0  0
   -2.6850    1.1190    0.9660 H   0  0  0  0  0  0  0  0  0  0  0  0
   -2.6849    1.3784    2.7153 H   0  0  0  0  0  0  0  0  0  0  0  0
   -5.1230    1.6306    0.7758 O   0  0  0  0  0  0  0  0  0  0  0  0
   -0.1496    2.6459   -0.0674 C   0  0  0  0  0  0  0  0  0  0  0  0
    0.7563    3.0548    0.1006 H   0  0  0  0  0  0  0  0  0  0  0  0
   -0.7645    2.9253    0.6809 H   0  0  0  0  0  0  0  0  0  0  0  0
   -0.5420    3.0297   -1.0091 H   0  0  0  0  0  0  0  0  0  0  0  0
   -0.0119    1.1663   -0.0344 C   0  0  0  0  0  0  0  0  0  0  0  0
    1.0902    0.3868   -0.0000 C   0  0  0  0  0  0  0  0  0  0  0  0
    2.0382    0.6977    0.0087 H   0  0  0  0  0  0  0  0  0  0  0  0
    0.6663   -0.9209    0.0228 N   0  0  0  0  0  0  0  0  0  0  0  0
   -0.6545   -0.9389    0.0116 C   0  0  0  0  0  0  0  0  0  0  0  0
   -1.2248   -1.7565    0.0132 H   0  0  0  0  0  0  0  0  0  0  0  0
   -1.0902    0.3068    0.0000 N   0  0  0  0  0  0  0  0  0  0  0  0
   -2.0498    0.5877    0.0132 H   0  0  0  0  0  0  0  0  0  0  0  0
  1  5  1  0
  5  6  1  0
  5  9  2  0
  1  2  1  0
  1  3  1  0
  1  4  1  0
  6  7  1  0
  6  8  1  0
 10 14  1  0
 14 15  2  0
 15 17  1  0
 17 18  2  0
 18 20  1  0
 20 14  1  0
 10 11  1  0
 10 12  1  0
 10 13  1  0
 15 16  1  0
 18 19  1  0
 20 21  1  0
M  END
>  <PDB_ID>  (210) 
pdb4m56

>  <RESIDUE_NAME>  (210) 
GLN   HID

>  <FRAG_NAME>  (210) 
ACEM   MIMD

>  <FRAG_ATOM_NUM>  (210) 
fragi: 9  fragj: 12

>  <atom.prop.CHAIN_ID>  (210) 
A A A A A A A A A Z Z Z Z Z Z Z Z Z Z Z Z

>  <atom.prop.IS_HEAVY_ATOM>  (210) 
1 0 0 0 1 1 0 0 1 1 0 0 0 1 1 0 1 1 0 1 0

>  <DIFUSE_FUNC_ATOM>  (210) 
n/a

>  <FINAL_SINGLE_POINT_ENERGY>  (210) 
0

>  <NONCOV_INTER_ENERGY_QM>  (210) 
0

>  <FF_Energy>  (210) 
4.24

>  <QM_Energy>  (210) 
10.78

>  <source>  (210) 
ACEM_MIMD

>  <Index>  (210) 
26279

$$$$
ACEM-pdb4m98-A-ASN-326:MIMD-pdb4m98-A-HID-342
     RDKit          3D

 21 20  0  0  0  0  0  0  0  0999 V2000
   -2.9799   -3.7209    0.1832 C   0  0  0  0  0  0  0  0  0  0  0  0
   -2.7180   -2.7622    0.2149 H   0  0  0  0  0  0  0  0  0  0  0  0
   -2.9463   -4.1199    1.0937 H   0  0  0  0  0  0  0  0  0  0  0  0
   -4.0065   -3.7818   -0.1780 H   0  0  0  0  0  0  0  0  0  0  0  0
   -2.0072   -4.4629   -0.7108 C   0  0  0  0  0  0  0  0  0  0  0  0
   -0.8334   -3.8691   -0.9326 N   0  0  0  0  0  0  0  0  0  0  0  0
   -0.6381   -2.9837   -0.5089 H   0  0  0  0  0  0  0  0  0  0  0  0
   -0.1540   -4.3072   -1.5174 H   0  0  0  0  0  0  0  0  0  0  0  0
   -2.3056   -5.5520   -1.2107 O   0  0  0  0  0  0  0  0  0  0  0  0
   -0.1887    2.6589   -0.0263 C   0  0  0  0  0  0  0  0  0  0  0  0
    0.1589    3.0072   -0.9044 H   0  0  0  0  0  0  0  0  0  0  0  0
    0.3735    3.0469    0.7130 H   0  0  0  0  0  0  0  0  0  0  0  0
   -1.2189    2.9908    0.1025 H   0  0  0  0  0  0  0  0  0  0  0  0
   -0.0193    1.1685   -0.0111 C   0  0  0  0  0  0  0  0  0  0  0  0
    1.0925    0.3912   -0.0000 C   0  0  0  0  0  0  0  0  0  0  0  0
    2.0354    0.7073    0.0041 H   0  0  0  0  0  0  0  0  0  0  0  0
    0.6701   -0.9186    0.0060 N   0  0  0  0  0  0  0  0  0  0  0  0
   -0.6508   -0.9447    0.0052 C   0  0  0  0  0  0  0  0  0  0  0  0
   -1.2169   -1.7633    0.0097 H   0  0  0  0  0  0  0  0  0  0  0  0
   -1.0925    0.3036   -0.0000 N   0  0  0  0  0  0  0  0  0  0  0  0
   -2.0538    0.5771    0.0026 H   0  0  0  0  0  0  0  0  0  0  0  0
  1  5  1  0
  5  6  1  0
  5  9  2  0
  1  2  1  0
  1  3  1  0
  1  4  1  0
  6  7  1  0
  6  8  1  0
 10 14  1  0
 14 15  2  0
 15 17  1  0
 17 18  2  0
 18 20  1  0
 20 14  1  0
 10 11  1  0
 10 12  1  0
 10 13  1  0
 15 16  1  0
 18 19  1  0
 20 21  1  0
M  END
>  <PDB_ID>  (211) 
pdb4m98

>  <RESIDUE_NAME>  (211) 
ASN   HID

>  <FRAG_NAME>  (211) 
ACEM   MIMD

>  <FRAG_ATOM_NUM>  (211) 
fragi: 9  fragj: 12

>  <atom.prop.CHAIN_ID>  (211) 
A A A A A A A A A Z Z Z Z Z Z Z Z Z Z Z Z

>  <atom.prop.IS_HEAVY_ATOM>  (211) 
1 0 0 0 1 1 0 0 1 1 0 0 0 1 1 0 1 1 0 1 0

>  <DIFUSE_FUNC_ATOM>  (211) 
n/a

>  <FINAL_SINGLE_POINT_ENERGY>  (211) 
0

>  <NONCOV_INTER_ENERGY_QM>  (211) 
0

>  <FF_Energy>  (211) 
-0.74

>  <QM_Energy>  (211) 
4.8

>  <source>  (211) 
ACEM_MIMD

>  <Index>  (211) 
26340

$$$$
ACEM-pdb4maa-A-GLN-338:MIMD-pdb4maa-A-HID-356
     RDKit          3D

 21 20  0  0  0  0  0  0  0  0999 V2000
   -2.0927   -3.0422    2.2839 C   0  0  0  0  0  0  0  0  0  0  0  0
   -1.8866   -2.1202    1.9540 H   0  0  0  0  0  0  0  0  0  0  0  0
   -1.4220   -3.3056    2.9779 H   0  0  0  0  0  0  0  0  0  0  0  0
   -3.0863   -3.0451    2.7319 H   0  0  0  0  0  0  0  0  0  0  0  0
   -1.9783   -4.0045    1.1162 C   0  0  0  0  0  0  0  0  0  0  0  0
   -1.0512   -3.7202    0.2130 N   0  0  0  0  0  0  0  0  0  0  0  0
   -0.9039   -4.3274   -0.5933 H   0  0  0  0  0  0  0  0  0  0  0  0
   -0.4837   -2.8831    0.3335 H   0  0  0  0  0  0  0  0  0  0  0  0
   -2.7224   -4.9888    1.0226 O   0  0  0  0  0  0  0  0  0  0  0  0
   -0.1649    2.6629   -0.0218 C   0  0  0  0  0  0  0  0  0  0  0  0
    0.1557    2.9974   -0.9123 H   0  0  0  0  0  0  0  0  0  0  0  0
    0.4203    3.0468    0.6984 H   0  0  0  0  0  0  0  0  0  0  0  0
   -1.1909    2.9947    0.1371 H   0  0  0  0  0  0  0  0  0  0  0  0
   -0.0087    1.1642   -0.0016 C   0  0  0  0  0  0  0  0  0  0  0  0
    1.0940    0.3914   -0.0000 C   0  0  0  0  0  0  0  0  0  0  0  0
    2.0407    0.6940    0.0027 H   0  0  0  0  0  0  0  0  0  0  0  0
    0.6615   -0.9253   -0.0006 N   0  0  0  0  0  0  0  0  0  0  0  0
   -0.6528   -0.9412    0.0022 C   0  0  0  0  0  0  0  0  0  0  0  0
   -1.2290   -1.7554    0.0059 H   0  0  0  0  0  0  0  0  0  0  0  0
   -1.0940    0.3109    0.0000 N   0  0  0  0  0  0  0  0  0  0  0  0
   -2.0486    0.5890   -0.0015 H   0  0  0  0  0  0  0  0  0  0  0  0
  1  5  1  0
  5  6  1  0
  5  9  2  0
  1  2  1  0
  1  3  1  0
  1  4  1  0
  6  7  1  0
  6  8  1  0
 10 14  1  0
 14 15  2  0
 15 17  1  0
 17 18  2  0
 18 20  1  0
 20 14  1  0
 10 11  1  0
 10 12  1  0
 10 13  1  0
 15 16  1  0
 18 19  1  0
 20 21  1  0
M  END
>  <PDB_ID>  (212) 
pdb4maa

>  <RESIDUE_NAME>  (212) 
GLN   HID

>  <FRAG_NAME>  (212) 
ACEM   MIMD

>  <FRAG_ATOM_NUM>  (212) 
fragi: 9  fragj: 12

>  <atom.prop.CHAIN_ID>  (212) 
A A A A A A A A A Z Z Z Z Z Z Z Z Z Z Z Z

>  <atom.prop.IS_HEAVY_ATOM>  (212) 
1 0 0 0 1 1 0 0 1 1 0 0 0 1 1 0 1 1 0 1 0

>  <DIFUSE_FUNC_ATOM>  (212) 
n/a

>  <FINAL_SINGLE_POINT_ENERGY>  (212) 
0

>  <NONCOV_INTER_ENERGY_QM>  (212) 
0

>  <FF_Energy>  (212) 
1.0

>  <QM_Energy>  (212) 
7.93

>  <source>  (212) 
ACEM_MIMD

>  <Index>  (212) 
26379

$$$$
ACEM-pdb4mh2-E-ASN-140:MIMD-pdb4mh2-F-HID-136
     RDKit          3D

 21 20  0  0  0  0  0  0  0  0999 V2000
   -5.4609    2.2136    0.3216 C   0  0  0  0  0  0  0  0  0  0  0  0
   -6.3017    1.7473    0.5726 H   0  0  0  0  0  0  0  0  0  0  0  0
   -5.6452    2.9372   -0.3341 H   0  0  0  0  0  0  0  0  0  0  0  0
   -5.0154    2.6496    1.2157 H   0  0  0  0  0  0  0  0  0  0  0  0
   -4.5320    1.2026   -0.3321 C   0  0  0  0  0  0  0  0  0  0  0  0
   -3.2458    1.5648   -0.5118 N   0  0  0  0  0  0  0  0  0  0  0  0
   -2.9647    2.4757   -0.2020 H   0  0  0  0  0  0  0  0  0  0  0  0
   -2.6082    0.9442   -0.9362 H   0  0  0  0  0  0  0  0  0  0  0  0
   -4.9679    0.1154   -0.6853 O   0  0  0  0  0  0  0  0  0  0  0  0
   -0.1685    2.6630    0.0279 C   0  0  0  0  0  0  0  0  0  0  0  0
   -1.0666    2.8900   -0.3642 H   0  0  0  0  0  0  0  0  0  0  0  0
    0.5451    3.0564   -0.5623 H   0  0  0  0  0  0  0  0  0  0  0  0
   -0.0921    3.1087    1.0196 H   0  0  0  0  0  0  0  0  0  0  0  0
   -0.0153    1.1692    0.0168 C   0  0  0  0  0  0  0  0  0  0  0  0
    1.0934    0.3874    0.0000 C   0  0  0  0  0  0  0  0  0  0  0  0
    2.0387    0.7012   -0.0039 H   0  0  0  0  0  0  0  0  0  0  0  0
    0.6687   -0.9207   -0.0097 N   0  0  0  0  0  0  0  0  0  0  0  0
   -0.6535   -0.9415   -0.0071 C   0  0  0  0  0  0  0  0  0  0  0  0
   -1.2218   -1.7602   -0.0090 H   0  0  0  0  0  0  0  0  0  0  0  0
   -1.0934    0.3056   -0.0000 N   0  0  0  0  0  0  0  0  0  0  0  0
   -2.0525    0.5832   -0.0066 H   0  0  0  0  0  0  0  0  0  0  0  0
  1  5  1  0
  5  6  1  0
  5  9  2  0
  1  2  1  0
  1  3  1  0
  1  4  1  0
  6  7  1  0
  6  8  1  0
 10 14  1  0
 14 15  2  0
 15 17  1  0
 17 18  2  0
 18 20  1  0
 20 14  1  0
 10 11  1  0
 10 12  1  0
 10 13  1  0
 15 16  1  0
 18 19  1  0
 20 21  1  0
M  END
>  <PDB_ID>  (213) 
pdb4mh2

>  <RESIDUE_NAME>  (213) 
ASN   HID

>  <FRAG_NAME>  (213) 
ACEM   MIMD

>  <FRAG_ATOM_NUM>  (213) 
fragi: 9  fragj: 12

>  <atom.prop.CHAIN_ID>  (213) 
A A A A A A A A A Z Z Z Z Z Z Z Z Z Z Z Z

>  <atom.prop.IS_HEAVY_ATOM>  (213) 
1 0 0 0 1 1 0 0 1 1 0 0 0 1 1 0 1 1 0 1 0

>  <DIFUSE_FUNC_ATOM>  (213) 
n/a

>  <FINAL_SINGLE_POINT_ENERGY>  (213) 
0

>  <NONCOV_INTER_ENERGY_QM>  (213) 
0

>  <FF_Energy>  (213) 
17.16

>  <QM_Energy>  (213) 
25.0

>  <source>  (213) 
ACEM_MIMD

>  <Index>  (213) 
26513

$$$$
ACEM-pdb3orh-D-GLN-79:MIMD-pdb3orh-D-HID-86
     RDKit          3D

 21 20  0  0  0  0  0  0  0  0999 V2000
   -4.8316    0.0930    0.5758 C   0  0  0  0  0  0  0  0  0  0  0  0
   -3.9110   -0.2872    0.6523 H   0  0  0  0  0  0  0  0  0  0  0  0
   -5.2484   -0.2048   -0.2815 H   0  0  0  0  0  0  0  0  0  0  0  0
   -5.4323   -0.2839    1.4035 H   0  0  0  0  0  0  0  0  0  0  0  0
   -4.7291    1.6126    0.5638 C   0  0  0  0  0  0  0  0  0  0  0  0
   -3.5864    2.1382    0.1472 N   0  0  0  0  0  0  0  0  0  0  0  0
   -3.4551    3.1400    0.1008 H   0  0  0  0  0  0  0  0  0  0  0  0
   -2.8297    1.5079   -0.1290 H   0  0  0  0  0  0  0  0  0  0  0  0
   -5.6620    2.3342    0.9054 O   0  0  0  0  0  0  0  0  0  0  0  0
   -0.1076    2.6411    0.0046 C   0  0  0  0  0  0  0  0  0  0  0  0
   -0.7096    2.9182    0.7721 H   0  0  0  0  0  0  0  0  0  0  0  0
   -0.5699    2.9176   -0.8546 H   0  0  0  0  0  0  0  0  0  0  0  0
    0.8270    3.1964    0.0843 H   0  0  0  0  0  0  0  0  0  0  0  0
    0.0139    1.1481    0.0150 C   0  0  0  0  0  0  0  0  0  0  0  0
    1.1126    0.3556    0.0000 C   0  0  0  0  0  0  0  0  0  0  0  0
    2.0593    0.6484   -0.0068 H   0  0  0  0  0  0  0  0  0  0  0  0
    0.6587   -0.9497   -0.0033 N   0  0  0  0  0  0  0  0  0  0  0  0
   -0.6726   -0.9017   -0.0117 C   0  0  0  0  0  0  0  0  0  0  0  0
   -1.2681   -1.7200   -0.0242 H   0  0  0  0  0  0  0  0  0  0  0  0
   -1.1126    0.3478   -0.0000 N   0  0  0  0  0  0  0  0  0  0  0  0
   -2.0431    0.6467   -0.0019 H   0  0  0  0  0  0  0  0  0  0  0  0
  1  5  1  0
  5  6  1  0
  5  9  2  0
  1  2  1  0
  1  3  1  0
  1  4  1  0
  6  7  1  0
  6  8  1  0
 10 14  1  0
 14 15  2  0
 15 17  1  0
 17 18  2  0
 18 20  1  0
 20 14  1  0
 10 11  1  0
 10 12  1  0
 10 13  1  0
 15 16  1  0
 18 19  1  0
 20 21  1  0
M  END
>  <PDB_ID>  (214) 
pdb3orh

>  <RESIDUE_NAME>  (214) 
GLN   HID

>  <FRAG_NAME>  (214) 
ACEM   MIMD

>  <FRAG_ATOM_NUM>  (214) 
fragi: 9  fragj: 12

>  <atom.prop.CHAIN_ID>  (214) 
A A A A A A A A A Z Z Z Z Z Z Z Z Z Z Z Z

>  <atom.prop.IS_HEAVY_ATOM>  (214) 
1 0 0 0 1 1 0 0 1 1 0 0 0 1 1 0 1 1 0 1 0

>  <DIFUSE_FUNC_ATOM>  (214) 
n/a

>  <FINAL_SINGLE_POINT_ENERGY>  (214) 
0

>  <NONCOV_INTER_ENERGY_QM>  (214) 
0

>  <FF_Energy>  (214) 
7.22

>  <QM_Energy>  (214) 
15.34

>  <source>  (214) 
ACEM_MIMD

>  <Index>  (214) 
26600

$$$$
ACEM-pdb3p12-A-GLN-67:MIMD-pdb3p12-A-HID-22
     RDKit          3D

 21 20  0  0  0  0  0  0  0  0999 V2000
   -4.3196   -4.0610   -0.8130 C   0  0  0  0  0  0  0  0  0  0  0  0
   -4.3754   -4.9132   -0.3050 H   0  0  0  0  0  0  0  0  0  0  0  0
   -4.0811   -4.2355   -1.7616 H   0  0  0  0  0  0  0  0  0  0  0  0
   -5.2709   -3.5318   -0.7586 H   0  0  0  0  0  0  0  0  0  0  0  0
   -3.2329   -3.2157   -0.1991 C   0  0  0  0  0  0  0  0  0  0  0  0
   -2.1331   -3.0687   -0.9204 N   0  0  0  0  0  0  0  0  0  0  0  0
   -1.3540   -2.4986   -0.5805 H   0  0  0  0  0  0  0  0  0  0  0  0
   -2.0672   -3.5326   -1.8246 H   0  0  0  0  0  0  0  0  0  0  0  0
   -3.3879   -2.6729    0.9021 O   0  0  0  0  0  0  0  0  0  0  0  0
   -0.1851    2.6545    0.0172 C   0  0  0  0  0  0  0  0  0  0  0  0
    0.0923    3.0106   -0.8842 H   0  0  0  0  0  0  0  0  0  0  0  0
    0.4388    3.0354    0.7109 H   0  0  0  0  0  0  0  0  0  0  0  0
   -1.2007    2.9856    0.2337 H   0  0  0  0  0  0  0  0  0  0  0  0
   -0.0172    1.1671    0.0046 C   0  0  0  0  0  0  0  0  0  0  0  0
    1.0918    0.3897   -0.0000 C   0  0  0  0  0  0  0  0  0  0  0  0
    2.0361    0.7042    0.0001 H   0  0  0  0  0  0  0  0  0  0  0  0
    0.6685   -0.9179   -0.0042 N   0  0  0  0  0  0  0  0  0  0  0  0
   -0.6513   -0.9421   -0.0005 C   0  0  0  0  0  0  0  0  0  0  0  0
   -1.2186   -1.7606    0.0030 H   0  0  0  0  0  0  0  0  0  0  0  0
   -1.0918    0.3032   -0.0000 N   0  0  0  0  0  0  0  0  0  0  0  0
   -2.0525    0.5799   -0.0026 H   0  0  0  0  0  0  0  0  0  0  0  0
  1  5  1  0
  5  6  1  0
  5  9  2  0
  1  2  1  0
  1  3  1  0
  1  4  1  0
  6  7  1  0
  6  8  1  0
 10 14  1  0
 14 15  2  0
 15 17  1  0
 17 18  2  0
 18 20  1  0
 20 14  1  0
 10 11  1  0
 10 12  1  0
 10 13  1  0
 15 16  1  0
 18 19  1  0
 20 21  1  0
M  END
>  <PDB_ID>  (215) 
pdb3p12

>  <RESIDUE_NAME>  (215) 
GLN   HID

>  <FRAG_NAME>  (215) 
ACEM   MIMD

>  <FRAG_ATOM_NUM>  (215) 
fragi: 9  fragj: 12

>  <atom.prop.CHAIN_ID>  (215) 
A A A A A A A A A Z Z Z Z Z Z Z Z Z Z Z Z

>  <atom.prop.IS_HEAVY_ATOM>  (215) 
1 0 0 0 1 1 0 0 1 1 0 0 0 1 1 0 1 1 0 1 0

>  <DIFUSE_FUNC_ATOM>  (215) 
n/a

>  <FINAL_SINGLE_POINT_ENERGY>  (215) 
0

>  <NONCOV_INTER_ENERGY_QM>  (215) 
0

>  <FF_Energy>  (215) 
11.97

>  <QM_Energy>  (215) 
31.03

>  <source>  (215) 
ACEM_MIMD

>  <Index>  (215) 
26783

$$$$
ACEM-pdb3p12-B-GLN-67:MIMD-pdb3p12-B-HID-22
     RDKit          3D

 21 20  0  0  0  0  0  0  0  0999 V2000
   -4.3345   -4.0440   -1.3053 C   0  0  0  0  0  0  0  0  0  0  0  0
   -4.5331   -4.8796   -0.8036 H   0  0  0  0  0  0  0  0  0  0  0  0
   -4.0198   -4.2588   -2.2244 H   0  0  0  0  0  0  0  0  0  0  0  0
   -5.2317   -3.4273   -1.3599 H   0  0  0  0  0  0  0  0  0  0  0  0
   -3.2402   -3.3051   -0.5860 C   0  0  0  0  0  0  0  0  0  0  0  0
   -2.0323   -3.3381   -1.1406 N   0  0  0  0  0  0  0  0  0  0  0  0
   -1.2445   -2.8507   -0.7193 H   0  0  0  0  0  0  0  0  0  0  0  0
   -1.9039   -3.8670   -2.0036 H   0  0  0  0  0  0  0  0  0  0  0  0
   -3.4634   -2.7284    0.4742 O   0  0  0  0  0  0  0  0  0  0  0  0
   -0.1882    2.6491    0.0302 C   0  0  0  0  0  0  0  0  0  0  0  0
    0.1307    3.0136   -0.8551 H   0  0  0  0  0  0  0  0  0  0  0  0
    0.4037    3.0282    0.7550 H   0  0  0  0  0  0  0  0  0  0  0  0
   -1.2129    2.9783    0.2019 H   0  0  0  0  0  0  0  0  0  0  0  0
   -0.0184    1.1671    0.0145 C   0  0  0  0  0  0  0  0  0  0  0  0
    1.0916    0.3916    0.0000 C   0  0  0  0  0  0  0  0  0  0  0  0
    2.0353    0.7067   -0.0029 H   0  0  0  0  0  0  0  0  0  0  0  0
    0.6696   -0.9164   -0.0092 N   0  0  0  0  0  0  0  0  0  0  0  0
   -0.6512   -0.9424   -0.0052 C   0  0  0  0  0  0  0  0  0  0  0  0
   -1.2162   -1.7637   -0.0056 H   0  0  0  0  0  0  0  0  0  0  0  0
   -1.0916    0.3001   -0.0000 N   0  0  0  0  0  0  0  0  0  0  0  0
   -2.0530    0.5763   -0.0072 H   0  0  0  0  0  0  0  0  0  0  0  0
  1  5  1  0
  5  6  1  0
  5  9  2  0
  1  2  1  0
  1  3  1  0
  1  4  1  0
  6  7  1  0
  6  8  1  0
 10 14  1  0
 14 15  2  0
 15 17  1  0
 17 18  2  0
 18 20  1  0
 20 14  1  0
 10 11  1  0
 10 12  1  0
 10 13  1  0
 15 16  1  0
 18 19  1  0
 20 21  1  0
M  END
>  <PDB_ID>  (216) 
pdb3p12

>  <RESIDUE_NAME>  (216) 
GLN   HID

>  <FRAG_NAME>  (216) 
ACEM   MIMD

>  <FRAG_ATOM_NUM>  (216) 
fragi: 9  fragj: 12

>  <atom.prop.CHAIN_ID>  (216) 
A A A A A A A A A Z Z Z Z Z Z Z Z Z Z Z Z

>  <atom.prop.IS_HEAVY_ATOM>  (216) 
1 0 0 0 1 1 0 0 1 1 0 0 0 1 1 0 1 1 0 1 0

>  <DIFUSE_FUNC_ATOM>  (216) 
n/a

>  <FINAL_SINGLE_POINT_ENERGY>  (216) 
0

>  <NONCOV_INTER_ENERGY_QM>  (216) 
0

>  <FF_Energy>  (216) 
-1.21

>  <QM_Energy>  (216) 
6.68

>  <source>  (216) 
ACEM_MIMD

>  <Index>  (216) 
26785

$$$$
ACEM-pdb3p12-C-GLN-67:MIMD-pdb3p12-C-HID-22
     RDKit          3D

 21 20  0  0  0  0  0  0  0  0999 V2000
   -3.6227   -4.1074   -1.8359 C   0  0  0  0  0  0  0  0  0  0  0  0
   -3.6838   -5.0122   -1.4300 H   0  0  0  0  0  0  0  0  0  0  0  0
   -3.2464   -4.1601   -2.7537 H   0  0  0  0  0  0  0  0  0  0  0  0
   -4.6095   -3.6453   -1.8649 H   0  0  0  0  0  0  0  0  0  0  0  0
   -2.6996   -3.2706   -0.9913 C   0  0  0  0  0  0  0  0  0  0  0  0
   -1.4905   -3.0507   -1.4880 N   0  0  0  0  0  0  0  0  0  0  0  0
   -0.8094   -2.4800   -0.9814 H   0  0  0  0  0  0  0  0  0  0  0  0
   -1.2430   -3.4598   -2.3876 H   0  0  0  0  0  0  0  0  0  0  0  0
   -3.0727   -2.8033    0.0942 O   0  0  0  0  0  0  0  0  0  0  0  0
   -0.1749    2.6545    0.0148 C   0  0  0  0  0  0  0  0  0  0  0  0
    0.2131    3.0174   -0.8388 H   0  0  0  0  0  0  0  0  0  0  0  0
    0.3502    3.0270    0.7881 H   0  0  0  0  0  0  0  0  0  0  0  0
   -1.2102    2.9848    0.1003 H   0  0  0  0  0  0  0  0  0  0  0  0
   -0.0164    1.1665    0.0103 C   0  0  0  0  0  0  0  0  0  0  0  0
    1.0908    0.3890    0.0000 C   0  0  0  0  0  0  0  0  0  0  0  0
    2.0361    0.7033   -0.0004 H   0  0  0  0  0  0  0  0  0  0  0  0
    0.6684   -0.9170   -0.0088 N   0  0  0  0  0  0  0  0  0  0  0  0
   -0.6520   -0.9421   -0.0015 C   0  0  0  0  0  0  0  0  0  0  0  0
   -1.2186   -1.7606    0.0033 H   0  0  0  0  0  0  0  0  0  0  0  0
   -1.0908    0.3037   -0.0000 N   0  0  0  0  0  0  0  0  0  0  0  0
   -2.0521    0.5807   -0.0056 H   0  0  0  0  0  0  0  0  0  0  0  0
  1  5  1  0
  5  6  1  0
  5  9  2  0
  1  2  1  0
  1  3  1  0
  1  4  1  0
  6  7  1  0
  6  8  1  0
 10 14  1  0
 14 15  2  0
 15 17  1  0
 17 18  2  0
 18 20  1  0
 20 14  1  0
 10 11  1  0
 10 12  1  0
 10 13  1  0
 15 16  1  0
 18 19  1  0
 20 21  1  0
M  END
>  <PDB_ID>  (217) 
pdb3p12

>  <RESIDUE_NAME>  (217) 
GLN   HID

>  <FRAG_NAME>  (217) 
ACEM   MIMD

>  <FRAG_ATOM_NUM>  (217) 
fragi: 9  fragj: 12

>  <atom.prop.CHAIN_ID>  (217) 
A A A A A A A A A Z Z Z Z Z Z Z Z Z Z Z Z

>  <atom.prop.IS_HEAVY_ATOM>  (217) 
1 0 0 0 1 1 0 0 1 1 0 0 0 1 1 0 1 1 0 1 0

>  <DIFUSE_FUNC_ATOM>  (217) 
n/a

>  <FINAL_SINGLE_POINT_ENERGY>  (217) 
0

>  <NONCOV_INTER_ENERGY_QM>  (217) 
0

>  <FF_Energy>  (217) 
0.84

>  <QM_Energy>  (217) 
11.18

>  <source>  (217) 
ACEM_MIMD

>  <Index>  (217) 
26789

$$$$
ACEM-pdb4mxn-A-GLN-136:MIMD-pdb4mxn-A-HID-141
     RDKit          3D

 21 20  0  0  0  0  0  0  0  0999 V2000
   -4.8442    3.3260    1.3424 C   0  0  0  0  0  0  0  0  0  0  0  0
   -5.6391    3.1921    1.9304 H   0  0  0  0  0  0  0  0  0  0  0  0
   -5.0879    3.9123    0.5723 H   0  0  0  0  0  0  0  0  0  0  0  0
   -4.0735    3.8322    1.9236 H   0  0  0  0  0  0  0  0  0  0  0  0
   -4.3820    1.9937    0.8255 C   0  0  0  0  0  0  0  0  0  0  0  0
   -3.3688    2.0222   -0.0341 N   0  0  0  0  0  0  0  0  0  0  0  0
   -2.9858    1.1561   -0.4216 H   0  0  0  0  0  0  0  0  0  0  0  0
   -2.9754    2.9204   -0.3044 H   0  0  0  0  0  0  0  0  0  0  0  0
   -4.9685    0.9418    1.1260 O   0  0  0  0  0  0  0  0  0  0  0  0
   -0.0898    2.6438    0.0491 C   0  0  0  0  0  0  0  0  0  0  0  0
   -0.8273    2.8944    0.6837 H   0  0  0  0  0  0  0  0  0  0  0  0
   -0.3346    2.9646   -0.8710 H   0  0  0  0  0  0  0  0  0  0  0  0
    0.8286    3.1408    0.3619 H   0  0  0  0  0  0  0  0  0  0  0  0
    0.0166    1.1484    0.0154 C   0  0  0  0  0  0  0  0  0  0  0  0
    1.1130    0.3472   -0.0000 C   0  0  0  0  0  0  0  0  0  0  0  0
    2.0609    0.6406   -0.0089 H   0  0  0  0  0  0  0  0  0  0  0  0
    0.6565   -0.9509    0.0007 N   0  0  0  0  0  0  0  0  0  0  0  0
   -0.6731   -0.8977   -0.0161 C   0  0  0  0  0  0  0  0  0  0  0  0
   -1.2723   -1.7155   -0.0371 H   0  0  0  0  0  0  0  0  0  0  0  0
   -1.1130    0.3531    0.0000 N   0  0  0  0  0  0  0  0  0  0  0  0
   -2.0415    0.6531    0.0007 H   0  0  0  0  0  0  0  0  0  0  0  0
  1  5  1  0
  5  6  1  0
  5  9  2  0
  1  2  1  0
  1  3  1  0
  1  4  1  0
  6  7  1  0
  6  8  1  0
 10 14  1  0
 14 15  2  0
 15 17  1  0
 17 18  2  0
 18 20  1  0
 20 14  1  0
 10 11  1  0
 10 12  1  0
 10 13  1  0
 15 16  1  0
 18 19  1  0
 20 21  1  0
M  END
>  <PDB_ID>  (218) 
pdb4mxn

>  <RESIDUE_NAME>  (218) 
GLN   HID

>  <FRAG_NAME>  (218) 
ACEM   MIMD

>  <FRAG_ATOM_NUM>  (218) 
fragi: 9  fragj: 12

>  <atom.prop.CHAIN_ID>  (218) 
A A A A A A A A A Z Z Z Z Z Z Z Z Z Z Z Z

>  <atom.prop.IS_HEAVY_ATOM>  (218) 
1 0 0 0 1 1 0 0 1 1 0 0 0 1 1 0 1 1 0 1 0

>  <DIFUSE_FUNC_ATOM>  (218) 
n/a

>  <FINAL_SINGLE_POINT_ENERGY>  (218) 
0

>  <NONCOV_INTER_ENERGY_QM>  (218) 
0

>  <FF_Energy>  (218) 
8.65

>  <QM_Energy>  (218) 
17.59

>  <source>  (218) 
ACEM_MIMD

>  <Index>  (218) 
26856

$$$$
ACEM-pdb4mxn-C-GLN-136:MIMD-pdb4mxn-C-HID-141
     RDKit          3D

 21 20  0  0  0  0  0  0  0  0999 V2000
   -4.9017    3.3674    1.0108 C   0  0  0  0  0  0  0  0  0  0  0  0
   -5.7133    3.2754    1.5856 H   0  0  0  0  0  0  0  0  0  0  0  0
   -5.1213    3.9180    0.2067 H   0  0  0  0  0  0  0  0  0  0  0  0
   -4.1319    3.8854    1.5828 H   0  0  0  0  0  0  0  0  0  0  0  0
   -4.4718    1.9807    0.5508 C   0  0  0  0  0  0  0  0  0  0  0  0
   -3.3992    1.9178   -0.2208 N   0  0  0  0  0  0  0  0  0  0  0  0
   -3.0451    1.0260   -0.5541 H   0  0  0  0  0  0  0  0  0  0  0  0
   -2.9267    2.7839   -0.4801 H   0  0  0  0  0  0  0  0  0  0  0  0
   -5.1110    0.9640    0.8476 O   0  0  0  0  0  0  0  0  0  0  0  0
   -0.0975    2.6448   -0.0768 C   0  0  0  0  0  0  0  0  0  0  0  0
   -0.8525    2.9233    0.5268 H   0  0  0  0  0  0  0  0  0  0  0  0
   -0.3236    2.9173   -1.0180 H   0  0  0  0  0  0  0  0  0  0  0  0
    0.8113    3.1613    0.2319 H   0  0  0  0  0  0  0  0  0  0  0  0
    0.0113    1.1475   -0.0340 C   0  0  0  0  0  0  0  0  0  0  0  0
    1.1121    0.3511    0.0000 C   0  0  0  0  0  0  0  0  0  0  0  0
    2.0581    0.6483    0.0052 H   0  0  0  0  0  0  0  0  0  0  0  0
    0.6602   -0.9501    0.0276 N   0  0  0  0  0  0  0  0  0  0  0  0
   -0.6714   -0.8996    0.0064 C   0  0  0  0  0  0  0  0  0  0  0  0
   -1.2687   -1.7172   -0.0025 H   0  0  0  0  0  0  0  0  0  0  0  0
   -1.1121    0.3511   -0.0000 N   0  0  0  0  0  0  0  0  0  0  0  0
   -2.0438    0.6481    0.0156 H   0  0  0  0  0  0  0  0  0  0  0  0
  1  5  1  0
  5  6  1  0
  5  9  2  0
  1  2  1  0
  1  3  1  0
  1  4  1  0
  6  7  1  0
  6  8  1  0
 10 14  1  0
 14 15  2  0
 15 17  1  0
 17 18  2  0
 18 20  1  0
 20 14  1  0
 10 11  1  0
 10 12  1  0
 10 13  1  0
 15 16  1  0
 18 19  1  0
 20 21  1  0
M  END
>  <PDB_ID>  (219) 
pdb4mxn

>  <RESIDUE_NAME>  (219) 
GLN   HID

>  <FRAG_NAME>  (219) 
ACEM   MIMD

>  <FRAG_ATOM_NUM>  (219) 
fragi: 9  fragj: 12

>  <atom.prop.CHAIN_ID>  (219) 
A A A A A A A A A Z Z Z Z Z Z Z Z Z Z Z Z

>  <atom.prop.IS_HEAVY_ATOM>  (219) 
1 0 0 0 1 1 0 0 1 1 0 0 0 1 1 0 1 1 0 1 0

>  <DIFUSE_FUNC_ATOM>  (219) 
n/a

>  <FINAL_SINGLE_POINT_ENERGY>  (219) 
0

>  <NONCOV_INTER_ENERGY_QM>  (219) 
0

>  <FF_Energy>  (219) 
7.89

>  <QM_Energy>  (219) 
14.92

>  <source>  (219) 
ACEM_MIMD

>  <Index>  (219) 
26857

$$$$
ACEM-pdb4mxn-D-GLN-136:MIMD-pdb4mxn-D-HID-141
     RDKit          3D

 21 20  0  0  0  0  0  0  0  0999 V2000
   -4.9556    3.1884    1.3071 C   0  0  0  0  0  0  0  0  0  0  0  0
   -5.7709    3.0834    1.8798 H   0  0  0  0  0  0  0  0  0  0  0  0
   -5.1920    3.7238    0.4939 H   0  0  0  0  0  0  0  0  0  0  0  0
   -4.2174    3.7528    1.8768 H   0  0  0  0  0  0  0  0  0  0  0  0
   -4.4669    1.8368    0.8870 C   0  0  0  0  0  0  0  0  0  0  0  0
   -3.4454    1.7956    0.0416 N   0  0  0  0  0  0  0  0  0  0  0  0
   -3.0519    0.9140   -0.2758 H   0  0  0  0  0  0  0  0  0  0  0  0
   -3.0502    2.6786   -0.2929 H   0  0  0  0  0  0  0  0  0  0  0  0
   -4.9495    0.8151    1.3579 O   0  0  0  0  0  0  0  0  0  0  0  0
   -0.0900    2.6389    0.0097 C   0  0  0  0  0  0  0  0  0  0  0  0
   -0.8427    2.9037    0.6267 H   0  0  0  0  0  0  0  0  0  0  0  0
   -0.3285    2.9417   -0.9220 H   0  0  0  0  0  0  0  0  0  0  0  0
    0.8190    3.1522    0.3233 H   0  0  0  0  0  0  0  0  0  0  0  0
    0.0146    1.1476    0.0068 C   0  0  0  0  0  0  0  0  0  0  0  0
    1.1150    0.3476   -0.0000 C   0  0  0  0  0  0  0  0  0  0  0  0
    2.0612    0.6439   -0.0057 H   0  0  0  0  0  0  0  0  0  0  0  0
    0.6589   -0.9482    0.0046 N   0  0  0  0  0  0  0  0  0  0  0  0
   -0.6735   -0.8990   -0.0114 C   0  0  0  0  0  0  0  0  0  0  0  0
   -1.2700   -1.7176   -0.0288 H   0  0  0  0  0  0  0  0  0  0  0  0
   -1.1150    0.3520    0.0000 N   0  0  0  0  0  0  0  0  0  0  0  0
   -2.0427    0.6509    0.0026 H   0  0  0  0  0  0  0  0  0  0  0  0
  1  5  1  0
  5  6  1  0
  5  9  2  0
  1  2  1  0
  1  3  1  0
  1  4  1  0
  6  7  1  0
  6  8  1  0
 10 14  1  0
 14 15  2  0
 15 17  1  0
 17 18  2  0
 18 20  1  0
 20 14  1  0
 10 11  1  0
 10 12  1  0
 10 13  1  0
 15 16  1  0
 18 19  1  0
 20 21  1  0
M  END
>  <PDB_ID>  (220) 
pdb4mxn

>  <RESIDUE_NAME>  (220) 
GLN   HID

>  <FRAG_NAME>  (220) 
ACEM   MIMD

>  <FRAG_ATOM_NUM>  (220) 
fragi: 9  fragj: 12

>  <atom.prop.CHAIN_ID>  (220) 
A A A A A A A A A Z Z Z Z Z Z Z Z Z Z Z Z

>  <atom.prop.IS_HEAVY_ATOM>  (220) 
1 0 0 0 1 1 0 0 1 1 0 0 0 1 1 0 1 1 0 1 0

>  <DIFUSE_FUNC_ATOM>  (220) 
n/a

>  <FINAL_SINGLE_POINT_ENERGY>  (220) 
0

>  <NONCOV_INTER_ENERGY_QM>  (220) 
0

>  <FF_Energy>  (220) 
11.19

>  <QM_Energy>  (220) 
22.85

>  <source>  (220) 
ACEM_MIMD

>  <Index>  (220) 
26858

$$$$
ACEM-pdb3p8l-B-GLN-260:MIMD-pdb3p8l-B-HID-208
     RDKit          3D

 21 20  0  0  0  0  0  0  0  0999 V2000
   -5.2730    2.5769    1.5839 C   0  0  0  0  0  0  0  0  0  0  0  0
   -6.0096    2.2437    2.1715 H   0  0  0  0  0  0  0  0  0  0  0  0
   -5.6554    3.1466    0.8577 H   0  0  0  0  0  0  0  0  0  0  0  0
   -4.6000    3.1878    2.1855 H   0  0  0  0  0  0  0  0  0  0  0  0
   -4.5773    1.3843    0.9530 C   0  0  0  0  0  0  0  0  0  0  0  0
   -3.4943    1.6479    0.2298 N   0  0  0  0  0  0  0  0  0  0  0  0
   -2.9671    0.8985   -0.2122 H   0  0  0  0  0  0  0  0  0  0  0  0
   -3.1978    2.6163    0.1233 H   0  0  0  0  0  0  0  0  0  0  0  0
   -5.0045    0.2418    1.1114 O   0  0  0  0  0  0  0  0  0  0  0  0
   -0.1816    2.6541   -0.0070 C   0  0  0  0  0  0  0  0  0  0  0  0
    0.7299    3.0728   -0.0489 H   0  0  0  0  0  0  0  0  0  0  0  0
   -0.6265    2.9314    0.8486 H   0  0  0  0  0  0  0  0  0  0  0  0
   -0.7762    3.0112   -0.8478 H   0  0  0  0  0  0  0  0  0  0  0  0
   -0.0168    1.1666    0.0077 C   0  0  0  0  0  0  0  0  0  0  0  0
    1.0925    0.3892    0.0000 C   0  0  0  0  0  0  0  0  0  0  0  0
    2.0372    0.7039   -0.0050 H   0  0  0  0  0  0  0  0  0  0  0  0
    0.6695   -0.9184    0.0021 N   0  0  0  0  0  0  0  0  0  0  0  0
   -0.6527   -0.9425   -0.0098 C   0  0  0  0  0  0  0  0  0  0  0  0
   -1.2191   -1.7605   -0.0229 H   0  0  0  0  0  0  0  0  0  0  0  0
   -1.0925    0.3052   -0.0000 N   0  0  0  0  0  0  0  0  0  0  0  0
   -2.0527    0.5812    0.0009 H   0  0  0  0  0  0  0  0  0  0  0  0
  1  5  1  0
  5  6  1  0
  5  9  2  0
  1  2  1  0
  1  3  1  0
  1  4  1  0
  6  7  1  0
  6  8  1  0
 10 14  1  0
 14 15  2  0
 15 17  1  0
 17 18  2  0
 18 20  1  0
 20 14  1  0
 10 11  1  0
 10 12  1  0
 10 13  1  0
 15 16  1  0
 18 19  1  0
 20 21  1  0
M  END
>  <PDB_ID>  (221) 
pdb3p8l

>  <RESIDUE_NAME>  (221) 
GLN   HID

>  <FRAG_NAME>  (221) 
ACEM   MIMD

>  <FRAG_ATOM_NUM>  (221) 
fragi: 9  fragj: 12

>  <atom.prop.CHAIN_ID>  (221) 
A A A A A A A A A Z Z Z Z Z Z Z Z Z Z Z Z

>  <atom.prop.IS_HEAVY_ATOM>  (221) 
1 0 0 0 1 1 0 0 1 1 0 0 0 1 1 0 1 1 0 1 0

>  <DIFUSE_FUNC_ATOM>  (221) 
n/a

>  <FINAL_SINGLE_POINT_ENERGY>  (221) 
0

>  <NONCOV_INTER_ENERGY_QM>  (221) 
0

>  <FF_Energy>  (221) 
12.58

>  <QM_Energy>  (221) 
28.58

>  <source>  (221) 
ACEM_MIMD

>  <Index>  (221) 
27013

$$$$
ACEM-pdb3p9c-A-ASN-226:MIMD-pdb3p9c-A-HID-244
     RDKit          3D

 21 20  0  0  0  0  0  0  0  0999 V2000
   -3.8839    0.1313   -1.9247 C   0  0  0  0  0  0  0  0  0  0  0  0
   -3.6789   -0.6931   -2.4418 H   0  0  0  0  0  0  0  0  0  0  0  0
   -3.0444    0.6003   -1.6732 H   0  0  0  0  0  0  0  0  0  0  0  0
   -4.4716    0.7964   -2.5574 H   0  0  0  0  0  0  0  0  0  0  0  0
   -4.6242   -0.2524   -0.6684 C   0  0  0  0  0  0  0  0  0  0  0  0
   -3.9743   -0.0970    0.4822 N   0  0  0  0  0  0  0  0  0  0  0  0
   -3.0406    0.2662    0.4761 H   0  0  0  0  0  0  0  0  0  0  0  0
   -4.4129   -0.3396    1.3441 H   0  0  0  0  0  0  0  0  0  0  0  0
   -5.7749   -0.6814   -0.7291 O   0  0  0  0  0  0  0  0  0  0  0  0
   -0.1766    2.6531   -0.0055 C   0  0  0  0  0  0  0  0  0  0  0  0
    0.7217    3.0700    0.1725 H   0  0  0  0  0  0  0  0  0  0  0  0
   -0.7988    2.9085    0.7429 H   0  0  0  0  0  0  0  0  0  0  0  0
   -0.5704    3.0503   -0.9410 H   0  0  0  0  0  0  0  0  0  0  0  0
   -0.0176    1.1667   -0.0009 C   0  0  0  0  0  0  0  0  0  0  0  0
    1.0916    0.3891    0.0000 C   0  0  0  0  0  0  0  0  0  0  0  0
    2.0357    0.7048    0.0007 H   0  0  0  0  0  0  0  0  0  0  0  0
    0.6695   -0.9171    0.0009 N   0  0  0  0  0  0  0  0  0  0  0  0
   -0.6519   -0.9420   -0.0001 C   0  0  0  0  0  0  0  0  0  0  0  0
   -1.2178   -1.7616    0.0005 H   0  0  0  0  0  0  0  0  0  0  0  0
   -1.0916    0.3033   -0.0000 N   0  0  0  0  0  0  0  0  0  0  0  0
   -2.0526    0.5797    0.0001 H   0  0  0  0  0  0  0  0  0  0  0  0
  1  5  1  0
  5  6  1  0
  5  9  2  0
  1  2  1  0
  1  3  1  0
  1  4  1  0
  6  7  1  0
  6  8  1  0
 10 14  1  0
 14 15  2  0
 15 17  1  0
 17 18  2  0
 18 20  1  0
 20 14  1  0
 10 11  1  0
 10 12  1  0
 10 13  1  0
 15 16  1  0
 18 19  1  0
 20 21  1  0
M  END
>  <PDB_ID>  (222) 
pdb3p9c

>  <RESIDUE_NAME>  (222) 
ASN   HID

>  <FRAG_NAME>  (222) 
ACEM   MIMD

>  <FRAG_ATOM_NUM>  (222) 
fragi: 9  fragj: 12

>  <atom.prop.CHAIN_ID>  (222) 
A A A A A A A A A Z Z Z Z Z Z Z Z Z Z Z Z

>  <atom.prop.IS_HEAVY_ATOM>  (222) 
1 0 0 0 1 1 0 0 1 1 0 0 0 1 1 0 1 1 0 1 0

>  <DIFUSE_FUNC_ATOM>  (222) 
n/a

>  <FINAL_SINGLE_POINT_ENERGY>  (222) 
0

>  <NONCOV_INTER_ENERGY_QM>  (222) 
0

>  <FF_Energy>  (222) 
9.1

>  <QM_Energy>  (222) 
17.6

>  <source>  (222) 
ACEM_MIMD

>  <Index>  (222) 
27027

$$$$
ACEM-pdb3pig-A-ASN-37:MIMD-pdb3pig-A-HID-522
     RDKit          3D

 21 20  0  0  0  0  0  0  0  0999 V2000
    0.0437   -4.1212   -2.0842 C   0  0  0  0  0  0  0  0  0  0  0  0
    0.4957   -3.4001   -1.5893 H   0  0  0  0  0  0  0  0  0  0  0  0
   -0.2478   -3.8297   -2.9790 H   0  0  0  0  0  0  0  0  0  0  0  0
    0.7545   -4.9376   -2.2125 H   0  0  0  0  0  0  0  0  0  0  0  0
   -1.1596   -4.5900   -1.2955 C   0  0  0  0  0  0  0  0  0  0  0  0
   -1.5297   -3.8685   -0.2774 N   0  0  0  0  0  0  0  0  0  0  0  0
   -1.0223   -3.0272   -0.0428 H   0  0  0  0  0  0  0  0  0  0  0  0
   -2.3166   -4.1321    0.2854 H   0  0  0  0  0  0  0  0  0  0  0  0
   -1.6730   -5.6656   -1.5648 O   0  0  0  0  0  0  0  0  0  0  0  0
   -0.1668    2.6675   -0.0183 C   0  0  0  0  0  0  0  0  0  0  0  0
    0.7486    3.0760   -0.0577 H   0  0  0  0  0  0  0  0  0  0  0  0
   -0.6088    2.9407    0.8399 H   0  0  0  0  0  0  0  0  0  0  0  0
   -0.7572    3.0422   -0.8545 H   0  0  0  0  0  0  0  0  0  0  0  0
   -0.0157    1.1693   -0.0140 C   0  0  0  0  0  0  0  0  0  0  0  0
    1.0921    0.3866   -0.0000 C   0  0  0  0  0  0  0  0  0  0  0  0
    2.0379    0.7000    0.0049 H   0  0  0  0  0  0  0  0  0  0  0  0
    0.6681   -0.9191    0.0067 N   0  0  0  0  0  0  0  0  0  0  0  0
   -0.6524   -0.9421    0.0073 C   0  0  0  0  0  0  0  0  0  0  0  0
   -1.2204   -1.7598    0.0125 H   0  0  0  0  0  0  0  0  0  0  0  0
   -1.0921    0.3053    0.0000 N   0  0  0  0  0  0  0  0  0  0  0  0
   -2.0518    0.5820    0.0031 H   0  0  0  0  0  0  0  0  0  0  0  0
  1  5  1  0
  5  6  1  0
  5  9  2  0
  1  2  1  0
  1  3  1  0
  1  4  1  0
  6  7  1  0
  6  8  1  0
 10 14  1  0
 14 15  2  0
 15 17  1  0
 17 18  2  0
 18 20  1  0
 20 14  1  0
 10 11  1  0
 10 12  1  0
 10 13  1  0
 15 16  1  0
 18 19  1  0
 20 21  1  0
M  END
>  <PDB_ID>  (223) 
pdb3pig

>  <RESIDUE_NAME>  (223) 
ASN   HID

>  <FRAG_NAME>  (223) 
ACEM   MIMD

>  <FRAG_ATOM_NUM>  (223) 
fragi: 9  fragj: 12

>  <atom.prop.CHAIN_ID>  (223) 
A A A A A A A A A Z Z Z Z Z Z Z Z Z Z Z Z

>  <atom.prop.IS_HEAVY_ATOM>  (223) 
1 0 0 0 1 1 0 0 1 1 0 0 0 1 1 0 1 1 0 1 0

>  <DIFUSE_FUNC_ATOM>  (223) 
n/a

>  <FINAL_SINGLE_POINT_ENERGY>  (223) 
0

>  <NONCOV_INTER_ENERGY_QM>  (223) 
0

>  <FF_Energy>  (223) 
0.44

>  <QM_Energy>  (223) 
7.93

>  <source>  (223) 
ACEM_MIMD

>  <Index>  (223) 
27220

$$$$
ACEM-pdb3pr3-A-ASN-390:MIMD-pdb3pr3-B-HID-486
     RDKit          3D

 21 20  0  0  0  0  0  0  0  0999 V2000
   -1.0326   -3.8342    1.9326 C   0  0  0  0  0  0  0  0  0  0  0  0
   -1.6375   -4.4988    2.5670 H   0  0  0  0  0  0  0  0  0  0  0  0
   -1.4524   -2.8221    2.0340 H   0  0  0  0  0  0  0  0  0  0  0  0
   -0.0065   -3.8302    2.3005 H   0  0  0  0  0  0  0  0  0  0  0  0
   -1.1603   -4.2706    0.5167 C   0  0  0  0  0  0  0  0  0  0  0  0
   -0.5544   -3.5601   -0.4010 N   0  0  0  0  0  0  0  0  0  0  0  0
   -0.5670   -3.8596   -1.3551 H   0  0  0  0  0  0  0  0  0  0  0  0
   -0.0788   -2.7179   -0.1480 H   0  0  0  0  0  0  0  0  0  0  0  0
   -1.7504   -5.3048    0.2398 O   0  0  0  0  0  0  0  0  0  0  0  0
   -0.0765    2.6271    0.0228 C   0  0  0  0  0  0  0  0  0  0  0  0
   -1.0031    2.9311   -0.4861 H   0  0  0  0  0  0  0  0  0  0  0  0
    0.7600    3.0425   -0.5582 H   0  0  0  0  0  0  0  0  0  0  0  0
   -0.0619    3.0535    1.0258 H   0  0  0  0  0  0  0  0  0  0  0  0
    0.0179    1.1418    0.0232 C   0  0  0  0  0  0  0  0  0  0  0  0
    1.1086    0.3464   -0.0000 C   0  0  0  0  0  0  0  0  0  0  0  0
    2.1588    0.6725   -0.0025 H   0  0  0  0  0  0  0  0  0  0  0  0
    0.6557   -0.9446   -0.0178 N   0  0  0  0  0  0  0  0  0  0  0  0
   -0.6735   -0.8952   -0.0054 C   0  0  0  0  0  0  0  0  0  0  0  0
   -1.3270   -1.7795   -0.0001 H   0  0  0  0  0  0  0  0  0  0  0  0
   -1.1086    0.3516    0.0000 N   0  0  0  0  0  0  0  0  0  0  0  0
   -2.0607    0.6583   -0.0109 H   0  0  0  0  0  0  0  0  0  0  0  0
  1  5  1  0
  5  6  1  0
  5  9  2  0
  1  2  1  0
  1  3  1  0
  1  4  1  0
  6  7  1  0
  6  8  1  0
 10 14  1  0
 14 15  2  0
 15 17  1  0
 17 18  2  0
 18 20  1  0
 20 14  1  0
 10 11  1  0
 10 12  1  0
 10 13  1  0
 15 16  1  0
 18 19  1  0
 20 21  1  0
M  END
>  <PDB_ID>  (224) 
pdb3pr3

>  <RESIDUE_NAME>  (224) 
ASN   HID

>  <FRAG_NAME>  (224) 
ACEM   MIMD

>  <FRAG_ATOM_NUM>  (224) 
fragi: 9  fragj: 12

>  <atom.prop.CHAIN_ID>  (224) 
A A A A A A A A A Z Z Z Z Z Z Z Z Z Z Z Z

>  <atom.prop.IS_HEAVY_ATOM>  (224) 
1 0 0 0 1 1 0 0 1 1 0 0 0 1 1 0 1 1 0 1 0

>  <DIFUSE_FUNC_ATOM>  (224) 
n/a

>  <FINAL_SINGLE_POINT_ENERGY>  (224) 
0

>  <NONCOV_INTER_ENERGY_QM>  (224) 
0

>  <FF_Energy>  (224) 
0.13

>  <QM_Energy>  (224) 
5.9

>  <source>  (224) 
ACEM_MIMD

>  <Index>  (224) 
27380

$$$$
ACEM-pdb3pya-A-GLN-339:MIMD-pdb3pya-A-HID-391
     RDKit          3D

 21 20  0  0  0  0  0  0  0  0999 V2000
   -0.2908   -6.2126   -0.5152 C   0  0  0  0  0  0  0  0  0  0  0  0
    0.6919   -6.0271   -0.5573 H   0  0  0  0  0  0  0  0  0  0  0  0
   -0.6025   -6.5494   -1.4054 H   0  0  0  0  0  0  0  0  0  0  0  0
   -0.4710   -6.9827    0.2349 H   0  0  0  0  0  0  0  0  0  0  0  0
   -1.0135   -4.9125   -0.2125 C   0  0  0  0  0  0  0  0  0  0  0  0
   -0.4046   -3.8002   -0.5919 N   0  0  0  0  0  0  0  0  0  0  0  0
   -0.8337   -2.8886   -0.4355 H   0  0  0  0  0  0  0  0  0  0  0  0
    0.5061   -3.8645   -1.0453 H   0  0  0  0  0  0  0  0  0  0  0  0
   -2.1049   -4.9086    0.3562 O   0  0  0  0  0  0  0  0  0  0  0  0
   -0.1761    2.6540    0.0013 C   0  0  0  0  0  0  0  0  0  0  0  0
   -0.9241    2.8925   -0.6287 H   0  0  0  0  0  0  0  0  0  0  0  0
    0.6754    3.0635   -0.3468 H   0  0  0  0  0  0  0  0  0  0  0  0
   -0.3938    3.0723    0.9840 H   0  0  0  0  0  0  0  0  0  0  0  0
   -0.0169    1.1674    0.0018 C   0  0  0  0  0  0  0  0  0  0  0  0
    1.0922    0.3878   -0.0000 C   0  0  0  0  0  0  0  0  0  0  0  0
    2.0371    0.7029   -0.0005 H   0  0  0  0  0  0  0  0  0  0  0  0
    0.6687   -0.9183   -0.0015 N   0  0  0  0  0  0  0  0  0  0  0  0
   -0.6518   -0.9420   -0.0004 C   0  0  0  0  0  0  0  0  0  0  0  0
   -1.2201   -1.7602    0.0010 H   0  0  0  0  0  0  0  0  0  0  0  0
   -1.0922    0.3051    0.0000 N   0  0  0  0  0  0  0  0  0  0  0  0
   -2.0526    0.5812   -0.0019 H   0  0  0  0  0  0  0  0  0  0  0  0
  1  5  1  0
  5  6  1  0
  5  9  2  0
  1  2  1  0
  1  3  1  0
  1  4  1  0
  6  7  1  0
  6  8  1  0
 10 14  1  0
 14 15  2  0
 15 17  1  0
 17 18  2  0
 18 20  1  0
 20 14  1  0
 10 11  1  0
 10 12  1  0
 10 13  1  0
 15 16  1  0
 18 19  1  0
 20 21  1  0
M  END
>  <PDB_ID>  (225) 
pdb3pya

>  <RESIDUE_NAME>  (225) 
GLN   HID

>  <FRAG_NAME>  (225) 
ACEM   MIMD

>  <FRAG_ATOM_NUM>  (225) 
fragi: 9  fragj: 12

>  <atom.prop.CHAIN_ID>  (225) 
A A A A A A A A A Z Z Z Z Z Z Z Z Z Z Z Z

>  <atom.prop.IS_HEAVY_ATOM>  (225) 
1 0 0 0 1 1 0 0 1 1 0 0 0 1 1 0 1 1 0 1 0

>  <DIFUSE_FUNC_ATOM>  (225) 
n/a

>  <FINAL_SINGLE_POINT_ENERGY>  (225) 
0

>  <NONCOV_INTER_ENERGY_QM>  (225) 
0

>  <FF_Energy>  (225) 
0.01

>  <QM_Energy>  (225) 
7.68

>  <source>  (225) 
ACEM_MIMD

>  <Index>  (225) 
27506

$$$$
ACEM-pdb4o0n-B-GLN-5:MIMD-pdb4o0n-B-HID-149
     RDKit          3D

 21 20  0  0  0  0  0  0  0  0999 V2000
   -2.1183   -5.4952    1.6518 C   0  0  0  0  0  0  0  0  0  0  0  0
   -2.6020   -5.2128    2.4805 H   0  0  0  0  0  0  0  0  0  0  0  0
   -1.7133   -6.3982    1.7930 H   0  0  0  0  0  0  0  0  0  0  0  0
   -2.8303   -5.5516    0.8285 H   0  0  0  0  0  0  0  0  0  0  0  0
   -0.9975   -4.5010    1.3895 C   0  0  0  0  0  0  0  0  0  0  0  0
   -1.2230   -3.5894    0.4449 N   0  0  0  0  0  0  0  0  0  0  0  0
   -0.5270   -2.8859    0.2259 H   0  0  0  0  0  0  0  0  0  0  0  0
   -2.1105   -3.6120   -0.0542 H   0  0  0  0  0  0  0  0  0  0  0  0
    0.0664   -4.5626    2.0156 O   0  0  0  0  0  0  0  0  0  0  0  0
   -0.1831    2.6507    0.0112 C   0  0  0  0  0  0  0  0  0  0  0  0
   -0.9289    2.8833   -0.6208 H   0  0  0  0  0  0  0  0  0  0  0  0
    0.6688    3.0597   -0.3333 H   0  0  0  0  0  0  0  0  0  0  0  0
   -0.4053    3.0648    0.9946 H   0  0  0  0  0  0  0  0  0  0  0  0
   -0.0205    1.1670    0.0207 C   0  0  0  0  0  0  0  0  0  0  0  0
    1.0917    0.3914   -0.0000 C   0  0  0  0  0  0  0  0  0  0  0  0
    2.0345    0.7082   -0.0052 H   0  0  0  0  0  0  0  0  0  0  0  0
    0.6706   -0.9178   -0.0104 N   0  0  0  0  0  0  0  0  0  0  0  0
   -0.6501   -0.9431   -0.0103 C   0  0  0  0  0  0  0  0  0  0  0  0
   -1.2162   -1.7633   -0.0152 H   0  0  0  0  0  0  0  0  0  0  0  0
   -1.0917    0.3025    0.0000 N   0  0  0  0  0  0  0  0  0  0  0  0
   -2.0541    0.5752   -0.0078 H   0  0  0  0  0  0  0  0  0  0  0  0
  1  5  1  0
  5  6  1  0
  5  9  2  0
  1  2  1  0
  1  3  1  0
  1  4  1  0
  6  7  1  0
  6  8  1  0
 10 14  1  0
 14 15  2  0
 15 17  1  0
 17 18  2  0
 18 20  1  0
 20 14  1  0
 10 11  1  0
 10 12  1  0
 10 13  1  0
 15 16  1  0
 18 19  1  0
 20 21  1  0
M  END
>  <PDB_ID>  (226) 
pdb4o0n

>  <RESIDUE_NAME>  (226) 
GLN   HID

>  <FRAG_NAME>  (226) 
ACEM   MIMD

>  <FRAG_ATOM_NUM>  (226) 
fragi: 9  fragj: 12

>  <atom.prop.CHAIN_ID>  (226) 
A A A A A A A A A Z Z Z Z Z Z Z Z Z Z Z Z

>  <atom.prop.IS_HEAVY_ATOM>  (226) 
1 0 0 0 1 1 0 0 1 1 0 0 0 1 1 0 1 1 0 1 0

>  <DIFUSE_FUNC_ATOM>  (226) 
n/a

>  <FINAL_SINGLE_POINT_ENERGY>  (226) 
0

>  <NONCOV_INTER_ENERGY_QM>  (226) 
0

>  <FF_Energy>  (226) 
9.52

>  <QM_Energy>  (226) 
14.99

>  <source>  (226) 
ACEM_MIMD

>  <Index>  (226) 
27620

$$$$
ACEM-pdb3q6z-A-ASN-821:MIMD-pdb3q6z-A-HID-879
     RDKit          3D

 21 20  0  0  0  0  0  0  0  0999 V2000
   -3.5800    0.5543   -2.4196 C   0  0  0  0  0  0  0  0  0  0  0  0
   -3.1335   -0.2362   -2.8368 H   0  0  0  0  0  0  0  0  0  0  0  0
   -2.8969    1.1191   -1.9570 H   0  0  0  0  0  0  0  0  0  0  0  0
   -4.0235    1.1497   -3.2177 H   0  0  0  0  0  0  0  0  0  0  0  0
   -4.5849    0.0807   -1.4212 C   0  0  0  0  0  0  0  0  0  0  0  0
   -4.1590   -0.0577   -0.1722 N   0  0  0  0  0  0  0  0  0  0  0  0
   -3.2090    0.1579    0.0599 H   0  0  0  0  0  0  0  0  0  0  0  0
   -4.7857   -0.3763    0.5394 H   0  0  0  0  0  0  0  0  0  0  0  0
   -5.7582   -0.1440   -1.7634 O   0  0  0  0  0  0  0  0  0  0  0  0
   -0.1572    2.6476    0.0270 C   0  0  0  0  0  0  0  0  0  0  0  0
    0.6885    3.0619    0.3656 H   0  0  0  0  0  0  0  0  0  0  0  0
   -0.9156    2.9033    0.6283 H   0  0  0  0  0  0  0  0  0  0  0  0
   -0.3596    3.0419   -0.9688 H   0  0  0  0  0  0  0  0  0  0  0  0
   -0.0086    1.1641    0.0416 C   0  0  0  0  0  0  0  0  0  0  0  0
    1.0952    0.3837    0.0000 C   0  0  0  0  0  0  0  0  0  0  0  0
    2.0414    0.6955   -0.0104 H   0  0  0  0  0  0  0  0  0  0  0  0
    0.6684   -0.9197   -0.0233 N   0  0  0  0  0  0  0  0  0  0  0  0
   -0.6597   -0.9366   -0.0183 C   0  0  0  0  0  0  0  0  0  0  0  0
   -1.2262   -1.7562   -0.0253 H   0  0  0  0  0  0  0  0  0  0  0  0
   -1.0952    0.3085   -0.0000 N   0  0  0  0  0  0  0  0  0  0  0  0
   -2.0502    0.5940   -0.0142 H   0  0  0  0  0  0  0  0  0  0  0  0
  1  5  1  0
  5  6  1  0
  5  9  2  0
  1  2  1  0
  1  3  1  0
  1  4  1  0
  6  7  1  0
  6  8  1  0
 10 14  1  0
 14 15  2  0
 15 17  1  0
 17 18  2  0
 18 20  1  0
 20 14  1  0
 10 11  1  0
 10 12  1  0
 10 13  1  0
 15 16  1  0
 18 19  1  0
 20 21  1  0
M  END
>  <PDB_ID>  (227) 
pdb3q6z

>  <RESIDUE_NAME>  (227) 
ASN   HID

>  <FRAG_NAME>  (227) 
ACEM   MIMD

>  <FRAG_ATOM_NUM>  (227) 
fragi: 9  fragj: 12

>  <atom.prop.CHAIN_ID>  (227) 
A A A A A A A A A Z Z Z Z Z Z Z Z Z Z Z Z

>  <atom.prop.IS_HEAVY_ATOM>  (227) 
1 0 0 0 1 1 0 0 1 1 0 0 0 1 1 0 1 1 0 1 0

>  <DIFUSE_FUNC_ATOM>  (227) 
n/a

>  <FINAL_SINGLE_POINT_ENERGY>  (227) 
0

>  <NONCOV_INTER_ENERGY_QM>  (227) 
0

>  <FF_Energy>  (227) 
6.85

>  <QM_Energy>  (227) 
12.34

>  <source>  (227) 
ACEM_MIMD

>  <Index>  (227) 
27654

$$$$
ACEM-pdb4oec-D-ASN-233:MIMD-pdb4oec-D-HID-12
     RDKit          3D

 21 20  0  0  0  0  0  0  0  0999 V2000
   -5.0269    3.2498    0.1189 C   0  0  0  0  0  0  0  0  0  0  0  0
   -5.6496    3.3830    0.8913 H   0  0  0  0  0  0  0  0  0  0  0  0
   -5.5423    3.3080   -0.7372 H   0  0  0  0  0  0  0  0  0  0  0  0
   -4.2923    4.0549    0.1294 H   0  0  0  0  0  0  0  0  0  0  0  0
   -4.4071    1.8936    0.2228 C   0  0  0  0  0  0  0  0  0  0  0  0
   -3.1800    1.8579    0.6233 N   0  0  0  0  0  0  0  0  0  0  0  0
   -2.6738    2.6945    0.8587 H   0  0  0  0  0  0  0  0  0  0  0  0
   -2.6926    0.9720    0.7132 H   0  0  0  0  0  0  0  0  0  0  0  0
   -5.0151    0.9135   -0.0691 O   0  0  0  0  0  0  0  0  0  0  0  0
   -0.1723    2.6380   -0.0175 C   0  0  0  0  0  0  0  0  0  0  0  0
   -0.0133    2.9965    0.9196 H   0  0  0  0  0  0  0  0  0  0  0  0
   -1.1373    2.8473   -0.2560 H   0  0  0  0  0  0  0  0  0  0  0  0
    0.4876    3.1538   -0.7151 H   0  0  0  0  0  0  0  0  0  0  0  0
   -0.0170    1.1615    0.0212 C   0  0  0  0  0  0  0  0  0  0  0  0
    1.0824    0.3901    0.0000 C   0  0  0  0  0  0  0  0  0  0  0  0
    2.0312    0.7045   -0.0082 H   0  0  0  0  0  0  0  0  0  0  0  0
    0.6632   -0.9120   -0.0051 N   0  0  0  0  0  0  0  0  0  0  0  0
   -0.6463   -0.9383   -0.0161 C   0  0  0  0  0  0  0  0  0  0  0  0
   -1.2146   -1.7592   -0.0319 H   0  0  0  0  0  0  0  0  0  0  0  0
   -1.0824    0.2986   -0.0000 N   0  0  0  0  0  0  0  0  0  0  0  0
   -2.0479    0.5756   -0.0045 H   0  0  0  0  0  0  0  0  0  0  0  0
  1  5  1  0
  5  6  1  0
  5  9  2  0
  1  2  1  0
  1  3  1  0
  1  4  1  0
  6  7  1  0
  6  8  1  0
 10 14  1  0
 14 15  2  0
 15 17  1  0
 17 18  2  0
 18 20  1  0
 20 14  1  0
 10 11  1  0
 10 12  1  0
 10 13  1  0
 15 16  1  0
 18 19  1  0
 20 21  1  0
M  END
>  <PDB_ID>  (228) 
pdb4oec

>  <RESIDUE_NAME>  (228) 
ASN   HID

>  <FRAG_NAME>  (228) 
ACEM   MIMD

>  <FRAG_ATOM_NUM>  (228) 
fragi: 9  fragj: 12

>  <atom.prop.CHAIN_ID>  (228) 
A A A A A A A A A Z Z Z Z Z Z Z Z Z Z Z Z

>  <atom.prop.IS_HEAVY_ATOM>  (228) 
1 0 0 0 1 1 0 0 1 1 0 0 0 1 1 0 1 1 0 1 0

>  <DIFUSE_FUNC_ATOM>  (228) 
n/a

>  <FINAL_SINGLE_POINT_ENERGY>  (228) 
0

>  <NONCOV_INTER_ENERGY_QM>  (228) 
0

>  <FF_Energy>  (228) 
13.23

>  <QM_Energy>  (228) 
26.92

>  <source>  (228) 
ACEM_MIMD

>  <Index>  (228) 
27898

$$$$
ACEM-pdb4p04-B-ASN-353:MIMD-pdb4p04-B-HID-356
     RDKit          3D

 21 20  0  0  0  0  0  0  0  0999 V2000
   -5.4338    3.3313    0.8353 C   0  0  0  0  0  0  0  0  0  0  0  0
   -6.0224    2.7530    1.3967 H   0  0  0  0  0  0  0  0  0  0  0  0
   -5.8195    3.4192   -0.0807 H   0  0  0  0  0  0  0  0  0  0  0  0
   -5.3950    4.3225    1.2870 H   0  0  0  0  0  0  0  0  0  0  0  0
   -4.0771    2.6869    0.7315 C   0  0  0  0  0  0  0  0  0  0  0  0
   -4.0252    1.5481    0.0694 N   0  0  0  0  0  0  0  0  0  0  0  0
   -4.8514    1.1554   -0.3387 H   0  0  0  0  0  0  0  0  0  0  0  0
   -3.1503    1.0623   -0.0322 H   0  0  0  0  0  0  0  0  0  0  0  0
   -3.0852    3.2012    1.2463 O   0  0  0  0  0  0  0  0  0  0  0  0
   -0.1703    2.6447   -0.0271 C   0  0  0  0  0  0  0  0  0  0  0  0
   -1.1352    2.8606   -0.2112 H   0  0  0  0  0  0  0  0  0  0  0  0
    0.3893    3.0212   -0.7734 H   0  0  0  0  0  0  0  0  0  0  0  0
    0.1299    3.1028    0.9152 H   0  0  0  0  0  0  0  0  0  0  0  0
   -0.0150    1.1642   -0.0284 C   0  0  0  0  0  0  0  0  0  0  0  0
    1.0911    0.3863   -0.0000 C   0  0  0  0  0  0  0  0  0  0  0  0
    2.0366    0.7012    0.0094 H   0  0  0  0  0  0  0  0  0  0  0  0
    0.6681   -0.9170    0.0146 N   0  0  0  0  0  0  0  0  0  0  0  0
   -0.6531   -0.9393    0.0139 C   0  0  0  0  0  0  0  0  0  0  0  0
   -1.2209   -1.7583    0.0237 H   0  0  0  0  0  0  0  0  0  0  0  0
   -1.0911    0.3059    0.0000 N   0  0  0  0  0  0  0  0  0  0  0  0
   -2.0508    0.5843    0.0078 H   0  0  0  0  0  0  0  0  0  0  0  0
  1  5  1  0
  5  6  1  0
  5  9  2  0
  1  2  1  0
  1  3  1  0
  1  4  1  0
  6  7  1  0
  6  8  1  0
 10 14  1  0
 14 15  2  0
 15 17  1  0
 17 18  2  0
 18 20  1  0
 20 14  1  0
 10 11  1  0
 10 12  1  0
 10 13  1  0
 15 16  1  0
 18 19  1  0
 20 21  1  0
M  END
>  <PDB_ID>  (229) 
pdb4p04

>  <RESIDUE_NAME>  (229) 
ASN   HID

>  <FRAG_NAME>  (229) 
ACEM   MIMD

>  <FRAG_ATOM_NUM>  (229) 
fragi: 9  fragj: 12

>  <atom.prop.CHAIN_ID>  (229) 
A A A A A A A A A Z Z Z Z Z Z Z Z Z Z Z Z

>  <atom.prop.IS_HEAVY_ATOM>  (229) 
1 0 0 0 1 1 0 0 1 1 0 0 0 1 1 0 1 1 0 1 0

>  <DIFUSE_FUNC_ATOM>  (229) 
n/a

>  <FINAL_SINGLE_POINT_ENERGY>  (229) 
0

>  <NONCOV_INTER_ENERGY_QM>  (229) 
0

>  <FF_Energy>  (229) 
4.66

>  <QM_Energy>  (229) 
12.72

>  <source>  (229) 
ACEM_MIMD

>  <Index>  (229) 
28432

$$$$
ACEM-pdb4p16-A-ASN-267:MIMD-pdb4p16-A-HID-281
     RDKit          3D

 21 20  0  0  0  0  0  0  0  0999 V2000
   -5.2571    2.2449    1.9967 C   0  0  0  0  0  0  0  0  0  0  0  0
   -6.1551    1.8539    2.2118 H   0  0  0  0  0  0  0  0  0  0  0  0
   -5.3751    3.1938    1.6955 H   0  0  0  0  0  0  0  0  0  0  0  0
   -4.6709    2.2590    2.9155 H   0  0  0  0  0  0  0  0  0  0  0  0
   -4.6267    1.4552    0.9023 C   0  0  0  0  0  0  0  0  0  0  0  0
   -3.3824    1.7425    0.5625 N   0  0  0  0  0  0  0  0  0  0  0  0
   -2.9014    2.4796    1.0563 H   0  0  0  0  0  0  0  0  0  0  0  0
   -2.9240    1.2466   -0.1646 H   0  0  0  0  0  0  0  0  0  0  0  0
   -5.2389    0.5677    0.3448 O   0  0  0  0  0  0  0  0  0  0  0  0
   -0.0903    2.6274   -0.0438 C   0  0  0  0  0  0  0  0  0  0  0  0
   -0.8576    2.8962   -0.6283 H   0  0  0  0  0  0  0  0  0  0  0  0
    0.7573    3.0077   -0.4178 H   0  0  0  0  0  0  0  0  0  0  0  0
   -0.2483    3.0452    0.9504 H   0  0  0  0  0  0  0  0  0  0  0  0
    0.0126    1.1406   -0.0371 C   0  0  0  0  0  0  0  0  0  0  0  0
    1.1037    0.3519    0.0000 C   0  0  0  0  0  0  0  0  0  0  0  0
    2.0540    0.6483    0.0166 H   0  0  0  0  0  0  0  0  0  0  0  0
    0.6545   -0.9424    0.0122 N   0  0  0  0  0  0  0  0  0  0  0  0
   -0.6671   -0.8975    0.0249 C   0  0  0  0  0  0  0  0  0  0  0  0
   -1.2656   -1.7160    0.0515 H   0  0  0  0  0  0  0  0  0  0  0  0
   -1.1037    0.3475   -0.0000 N   0  0  0  0  0  0  0  0  0  0  0  0
   -2.0388    0.6451    0.0061 H   0  0  0  0  0  0  0  0  0  0  0  0
  1  5  1  0
  5  6  1  0
  5  9  2  0
  1  2  1  0
  1  3  1  0
  1  4  1  0
  6  7  1  0
  6  8  1  0
 10 14  1  0
 14 15  2  0
 15 17  1  0
 17 18  2  0
 18 20  1  0
 20 14  1  0
 10 11  1  0
 10 12  1  0
 10 13  1  0
 15 16  1  0
 18 19  1  0
 20 21  1  0
M  END
>  <PDB_ID>  (230) 
pdb4p16

>  <RESIDUE_NAME>  (230) 
ASN   HID

>  <FRAG_NAME>  (230) 
ACEM   MIMD

>  <FRAG_ATOM_NUM>  (230) 
fragi: 9  fragj: 12

>  <atom.prop.CHAIN_ID>  (230) 
A A A A A A A A A Z Z Z Z Z Z Z Z Z Z Z Z

>  <atom.prop.IS_HEAVY_ATOM>  (230) 
1 0 0 0 1 1 0 0 1 1 0 0 0 1 1 0 1 1 0 1 0

>  <DIFUSE_FUNC_ATOM>  (230) 
n/a

>  <FINAL_SINGLE_POINT_ENERGY>  (230) 
0

>  <NONCOV_INTER_ENERGY_QM>  (230) 
0

>  <FF_Energy>  (230) 
10.3

>  <QM_Energy>  (230) 
22.33

>  <source>  (230) 
ACEM_MIMD

>  <Index>  (230) 
28444

$$$$
ACEM-pdb3r31-A-ASN-225:MIMD-pdb3r31-A-HID-251
     RDKit          3D

 21 20  0  0  0  0  0  0  0  0999 V2000
   -2.2178   -2.4927   -2.7998 C   0  0  0  0  0  0  0  0  0  0  0  0
   -2.3835   -3.1694   -3.5070 H   0  0  0  0  0  0  0  0  0  0  0  0
   -1.2668   -2.5073   -2.5166 H   0  0  0  0  0  0  0  0  0  0  0  0
   -2.4176   -1.5115   -3.2302 H   0  0  0  0  0  0  0  0  0  0  0  0
   -3.0977   -2.7782   -1.6170 C   0  0  0  0  0  0  0  0  0  0  0  0
   -2.7988   -2.1571   -0.5054 N   0  0  0  0  0  0  0  0  0  0  0  0
   -2.0219   -1.5215   -0.4637 H   0  0  0  0  0  0  0  0  0  0  0  0
   -3.3460   -2.3085    0.3263 H   0  0  0  0  0  0  0  0  0  0  0  0
   -4.0784   -3.5194   -1.7131 O   0  0  0  0  0  0  0  0  0  0  0  0
   -0.1746    2.6523   -0.0457 C   0  0  0  0  0  0  0  0  0  0  0  0
   -1.1279    2.8647   -0.2822 H   0  0  0  0  0  0  0  0  0  0  0  0
    0.4250    3.0235   -0.7614 H   0  0  0  0  0  0  0  0  0  0  0  0
    0.0695    3.1314    0.9025 H   0  0  0  0  0  0  0  0  0  0  0  0
   -0.0136    1.1684   -0.0182 C   0  0  0  0  0  0  0  0  0  0  0  0
    1.0926    0.3906   -0.0000 C   0  0  0  0  0  0  0  0  0  0  0  0
    2.0388    0.7021    0.0017 H   0  0  0  0  0  0  0  0  0  0  0  0
    0.6679   -0.9197    0.0165 N   0  0  0  0  0  0  0  0  0  0  0  0
   -0.6543   -0.9433    0.0018 C   0  0  0  0  0  0  0  0  0  0  0  0
   -1.2216   -1.7607   -0.0054 H   0  0  0  0  0  0  0  0  0  0  0  0
   -1.0926    0.3040    0.0000 N   0  0  0  0  0  0  0  0  0  0  0  0
   -2.0518    0.5831    0.0090 H   0  0  0  0  0  0  0  0  0  0  0  0
  1  5  1  0
  5  6  1  0
  5  9  2  0
  1  2  1  0
  1  3  1  0
  1  4  1  0
  6  7  1  0
  6  8  1  0
 10 14  1  0
 14 15  2  0
 15 17  1  0
 17 18  2  0
 18 20  1  0
 20 14  1  0
 10 11  1  0
 10 12  1  0
 10 13  1  0
 15 16  1  0
 18 19  1  0
 20 21  1  0
M  END
>  <PDB_ID>  (231) 
pdb3r31

>  <RESIDUE_NAME>  (231) 
ASN   HID

>  <FRAG_NAME>  (231) 
ACEM   MIMD

>  <FRAG_ATOM_NUM>  (231) 
fragi: 9  fragj: 12

>  <atom.prop.CHAIN_ID>  (231) 
A A A A A A A A A Z Z Z Z Z Z Z Z Z Z Z Z

>  <atom.prop.IS_HEAVY_ATOM>  (231) 
1 0 0 0 1 1 0 0 1 1 0 0 0 1 1 0 1 1 0 1 0

>  <DIFUSE_FUNC_ATOM>  (231) 
n/a

>  <FINAL_SINGLE_POINT_ENERGY>  (231) 
0

>  <NONCOV_INTER_ENERGY_QM>  (231) 
0

>  <FF_Energy>  (231) 
39.8

>  <QM_Energy>  (231) 
49.45

>  <source>  (231) 
ACEM_MIMD

>  <Index>  (231) 
28460

$$$$
ACEM-pdb3rdk-A-GLN-53:MIMD-pdb3rdk-A-HID-118
     RDKit          3D

 21 20  0  0  0  0  0  0  0  0999 V2000
   -5.4599   -0.0034    0.1042 C   0  0  0  0  0  0  0  0  0  0  0  0
   -6.1897   -0.1423   -0.5986 H   0  0  0  0  0  0  0  0  0  0  0  0
   -5.8946   -0.2163    1.0059 H   0  0  0  0  0  0  0  0  0  0  0  0
   -4.6709   -0.7340   -0.0744 H   0  0  0  0  0  0  0  0  0  0  0  0
   -5.0768    1.4573    0.1003 C   0  0  0  0  0  0  0  0  0  0  0  0
   -3.8104    1.7751   -0.0558 N   0  0  0  0  0  0  0  0  0  0  0  0
   -3.4913    2.7307   -0.0817 H   0  0  0  0  0  0  0  0  0  0  0  0
   -3.1230    1.0124   -0.1548 H   0  0  0  0  0  0  0  0  0  0  0  0
   -5.9699    2.3091    0.3230 O   0  0  0  0  0  0  0  0  0  0  0  0
   -0.0588    2.6683    0.0010 C   0  0  0  0  0  0  0  0  0  0  0  0
   -0.7956    2.9445   -0.6176 H   0  0  0  0  0  0  0  0  0  0  0  0
    0.8116    3.0261   -0.3395 H   0  0  0  0  0  0  0  0  0  0  0  0
   -0.2509    3.0680    0.9967 H   0  0  0  0  0  0  0  0  0  0  0  0
    0.0189    1.1694   -0.0026 C   0  0  0  0  0  0  0  0  0  0  0  0
    1.1119    0.3649    0.0000 C   0  0  0  0  0  0  0  0  0  0  0  0
    2.0631    0.6587   -0.0054 H   0  0  0  0  0  0  0  0  0  0  0  0
    0.6627   -0.9397    0.0129 N   0  0  0  0  0  0  0  0  0  0  0  0
   -0.6816   -0.9336   -0.0103 C   0  0  0  0  0  0  0  0  0  0  0  0
   -1.2593   -1.7377   -0.0302 H   0  0  0  0  0  0  0  0  0  0  0  0
   -1.1119    0.3390   -0.0000 N   0  0  0  0  0  0  0  0  0  0  0  0
   -2.0449    0.6382    0.0069 H   0  0  0  0  0  0  0  0  0  0  0  0
  1  5  1  0
  5  6  1  0
  5  9  2  0
  1  2  1  0
  1  3  1  0
  1  4  1  0
  6  7  1  0
  6  8  1  0
 10 14  1  0
 14 15  2  0
 15 17  1  0
 17 18  2  0
 18 20  1  0
 20 14  1  0
 10 11  1  0
 10 12  1  0
 10 13  1  0
 15 16  1  0
 18 19  1  0
 20 21  1  0
M  END
>  <PDB_ID>  (232) 
pdb3rdk

>  <RESIDUE_NAME>  (232) 
GLN   HID

>  <FRAG_NAME>  (232) 
ACEM   MIMD

>  <FRAG_ATOM_NUM>  (232) 
fragi: 9  fragj: 12

>  <atom.prop.CHAIN_ID>  (232) 
A A A A A A A A A Z Z Z Z Z Z Z Z Z Z Z Z

>  <atom.prop.IS_HEAVY_ATOM>  (232) 
1 0 0 0 1 1 0 0 1 1 0 0 0 1 1 0 1 1 0 1 0

>  <DIFUSE_FUNC_ATOM>  (232) 
n/a

>  <FINAL_SINGLE_POINT_ENERGY>  (232) 
0

>  <NONCOV_INTER_ENERGY_QM>  (232) 
0

>  <FF_Energy>  (232) 
7.87

>  <QM_Energy>  (232) 
16.33

>  <source>  (232) 
ACEM_MIMD

>  <Index>  (232) 
28729

$$$$
ACEM-pdb3rdk-B-GLN-53:MIMD-pdb3rdk-B-HID-118
     RDKit          3D

 21 20  0  0  0  0  0  0  0  0999 V2000
   -5.5420    0.0382    0.2906 C   0  0  0  0  0  0  0  0  0  0  0  0
   -6.2334   -0.0346   -0.4316 H   0  0  0  0  0  0  0  0  0  0  0  0
   -5.9631   -0.1971    1.1703 H   0  0  0  0  0  0  0  0  0  0  0  0
   -4.7398   -0.6701    0.0837 H   0  0  0  0  0  0  0  0  0  0  0  0
   -5.0956    1.5314    0.3653 C   0  0  0  0  0  0  0  0  0  0  0  0
   -3.8146    1.8113    0.1770 N   0  0  0  0  0  0  0  0  0  0  0  0
   -3.4787    2.7468    0.1995 H   0  0  0  0  0  0  0  0  0  0  0  0
   -3.1694    1.0308    0.0055 H   0  0  0  0  0  0  0  0  0  0  0  0
   -5.9545    2.4181    0.5037 O   0  0  0  0  0  0  0  0  0  0  0  0
   -0.1078    2.6775    0.1011 C   0  0  0  0  0  0  0  0  0  0  0  0
   -0.9212    2.9536   -0.3901 H   0  0  0  0  0  0  0  0  0  0  0  0
    0.7047    3.0769   -0.2990 H   0  0  0  0  0  0  0  0  0  0  0  0
   -0.1899    3.0035    1.1380 H   0  0  0  0  0  0  0  0  0  0  0  0
    0.0113    1.1704    0.0223 C   0  0  0  0  0  0  0  0  0  0  0  0
    1.1104    0.3599    0.0000 C   0  0  0  0  0  0  0  0  0  0  0  0
    2.0605    0.6611    0.0053 H   0  0  0  0  0  0  0  0  0  0  0  0
    0.6699   -0.9446   -0.0293 N   0  0  0  0  0  0  0  0  0  0  0  0
   -0.6812   -0.9291    0.0070 C   0  0  0  0  0  0  0  0  0  0  0  0
   -1.2587   -1.7337    0.0357 H   0  0  0  0  0  0  0  0  0  0  0  0
   -1.1104    0.3435   -0.0000 N   0  0  0  0  0  0  0  0  0  0  0  0
   -2.0470    0.6379   -0.0184 H   0  0  0  0  0  0  0  0  0  0  0  0
  1  5  1  0
  5  6  1  0
  5  9  2  0
  1  2  1  0
  1  3  1  0
  1  4  1  0
  6  7  1  0
  6  8  1  0
 10 14  1  0
 14 15  2  0
 15 17  1  0
 17 18  2  0
 18 20  1  0
 20 14  1  0
 10 11  1  0
 10 12  1  0
 10 13  1  0
 15 16  1  0
 18 19  1  0
 20 21  1  0
M  END
>  <PDB_ID>  (233) 
pdb3rdk

>  <RESIDUE_NAME>  (233) 
GLN   HID

>  <FRAG_NAME>  (233) 
ACEM   MIMD

>  <FRAG_ATOM_NUM>  (233) 
fragi: 9  fragj: 12

>  <atom.prop.CHAIN_ID>  (233) 
A A A A A A A A A Z Z Z Z Z Z Z Z Z Z Z Z

>  <atom.prop.IS_HEAVY_ATOM>  (233) 
1 0 0 0 1 1 0 0 1 1 0 0 0 1 1 0 1 1 0 1 0

>  <DIFUSE_FUNC_ATOM>  (233) 
n/a

>  <FINAL_SINGLE_POINT_ENERGY>  (233) 
0

>  <NONCOV_INTER_ENERGY_QM>  (233) 
0

>  <FF_Energy>  (233) 
7.46

>  <QM_Energy>  (233) 
14.88

>  <source>  (233) 
ACEM_MIMD

>  <Index>  (233) 
28733

$$$$
ACEM-pdb3reo-A-ASN-232:MIMD-pdb3reo-A-HID-250
     RDKit          3D

 21 20  0  0  0  0  0  0  0  0999 V2000
   -3.7149    0.1231   -2.3331 C   0  0  0  0  0  0  0  0  0  0  0  0
   -3.4724   -0.6194   -2.9416 H   0  0  0  0  0  0  0  0  0  0  0  0
   -2.9101    0.6179   -2.0360 H   0  0  0  0  0  0  0  0  0  0  0  0
   -4.3749    0.8108   -2.8618 H   0  0  0  0  0  0  0  0  0  0  0  0
   -4.3912   -0.4838   -1.0845 C   0  0  0  0  0  0  0  0  0  0  0  0
   -3.7595   -0.2795    0.0743 N   0  0  0  0  0  0  0  0  0  0  0  0
   -2.9089    0.2432    0.0938 H   0  0  0  0  0  0  0  0  0  0  0  0
   -4.1406   -0.6497    0.9209 H   0  0  0  0  0  0  0  0  0  0  0  0
   -5.4714   -1.0827   -1.1678 O   0  0  0  0  0  0  0  0  0  0  0  0
   -0.1790    2.6405    0.0593 C   0  0  0  0  0  0  0  0  0  0  0  0
    0.7204    3.0548    0.2471 H   0  0  0  0  0  0  0  0  0  0  0  0
   -0.7997    2.8773    0.8176 H   0  0  0  0  0  0  0  0  0  0  0  0
   -0.5756    3.0524   -0.8687 H   0  0  0  0  0  0  0  0  0  0  0  0
   -0.0180    1.1647    0.0303 C   0  0  0  0  0  0  0  0  0  0  0  0
    1.0922    0.3944   -0.0000 C   0  0  0  0  0  0  0  0  0  0  0  0
    2.0352    0.7096   -0.0080 H   0  0  0  0  0  0  0  0  0  0  0  0
    0.6695   -0.9133   -0.0165 N   0  0  0  0  0  0  0  0  0  0  0  0
   -0.6514   -0.9431   -0.0137 C   0  0  0  0  0  0  0  0  0  0  0  0
   -1.2136   -1.7652   -0.0196 H   0  0  0  0  0  0  0  0  0  0  0  0
   -1.0922    0.2972    0.0000 N   0  0  0  0  0  0  0  0  0  0  0  0
   -2.0532    0.5750   -0.0106 H   0  0  0  0  0  0  0  0  0  0  0  0
  1  5  1  0
  5  6  1  0
  5  9  2  0
  1  2  1  0
  1  3  1  0
  1  4  1  0
  6  7  1  0
  6  8  1  0
 10 14  1  0
 14 15  2  0
 15 17  1  0
 17 18  2  0
 18 20  1  0
 20 14  1  0
 10 11  1  0
 10 12  1  0
 10 13  1  0
 15 16  1  0
 18 19  1  0
 20 21  1  0
M  END
>  <PDB_ID>  (234) 
pdb3reo

>  <RESIDUE_NAME>  (234) 
ASN   HID

>  <FRAG_NAME>  (234) 
ACEM   MIMD

>  <FRAG_ATOM_NUM>  (234) 
fragi: 9  fragj: 12

>  <atom.prop.CHAIN_ID>  (234) 
A A A A A A A A A Z Z Z Z Z Z Z Z Z Z Z Z

>  <atom.prop.IS_HEAVY_ATOM>  (234) 
1 0 0 0 1 1 0 0 1 1 0 0 0 1 1 0 1 1 0 1 0

>  <DIFUSE_FUNC_ATOM>  (234) 
n/a

>  <FINAL_SINGLE_POINT_ENERGY>  (234) 
0

>  <NONCOV_INTER_ENERGY_QM>  (234) 
0

>  <FF_Energy>  (234) 
16.69

>  <QM_Energy>  (234) 
35.5

>  <source>  (234) 
ACEM_MIMD

>  <Index>  (234) 
28792

$$$$
ACEM-pdb4pmn-A-ASN-197:MIMD-pdb4pmn-A-HID-212
     RDKit          3D

 21 20  0  0  0  0  0  0  0  0999 V2000
   -2.9489   -5.2542    0.9209 C   0  0  0  0  0  0  0  0  0  0  0  0
   -3.3278   -5.2537    1.8370 H   0  0  0  0  0  0  0  0  0  0  0  0
   -2.5451   -6.1335    0.7047 H   0  0  0  0  0  0  0  0  0  0  0  0
   -3.7445   -5.0430    0.2063 H   0  0  0  0  0  0  0  0  0  0  0  0
   -1.8469   -4.1944    0.8597 C   0  0  0  0  0  0  0  0  0  0  0  0
   -1.9168   -3.3489   -0.1554 N   0  0  0  0  0  0  0  0  0  0  0  0
   -2.6578   -3.4166   -0.8241 H   0  0  0  0  0  0  0  0  0  0  0  0
   -1.2226   -2.6302   -0.2600 H   0  0  0  0  0  0  0  0  0  0  0  0
   -0.9687   -4.0746    1.7558 O   0  0  0  0  0  0  0  0  0  0  0  0
   -0.1070    2.6488    0.0974 C   0  0  0  0  0  0  0  0  0  0  0  0
    0.0484    3.0231   -0.8247 H   0  0  0  0  0  0  0  0  0  0  0  0
    0.6148    2.9989    0.7061 H   0  0  0  0  0  0  0  0  0  0  0  0
   -1.0733    2.9982    0.4611 H   0  0  0  0  0  0  0  0  0  0  0  0
    0.0201    1.1566    0.0276 C   0  0  0  0  0  0  0  0  0  0  0  0
    1.1224    0.3623   -0.0000 C   0  0  0  0  0  0  0  0  0  0  0  0
    2.0666    0.6452   -0.0062 H   0  0  0  0  0  0  0  0  0  0  0  0
    0.6592   -0.9598   -0.0182 N   0  0  0  0  0  0  0  0  0  0  0  0
   -0.6794   -0.9064   -0.0095 C   0  0  0  0  0  0  0  0  0  0  0  0
   -1.2752   -1.7239   -0.0088 H   0  0  0  0  0  0  0  0  0  0  0  0
   -1.1224    0.3473   -0.0000 N   0  0  0  0  0  0  0  0  0  0  0  0
   -2.0451    0.6511   -0.0096 H   0  0  0  0  0  0  0  0  0  0  0  0
  1  5  1  0
  5  6  1  0
  5  9  2  0
  1  2  1  0
  1  3  1  0
  1  4  1  0
  6  7  1  0
  6  8  1  0
 10 14  1  0
 14 15  2  0
 15 17  1  0
 17 18  2  0
 18 20  1  0
 20 14  1  0
 10 11  1  0
 10 12  1  0
 10 13  1  0
 15 16  1  0
 18 19  1  0
 20 21  1  0
M  END
>  <PDB_ID>  (235) 
pdb4pmn

>  <RESIDUE_NAME>  (235) 
ASN   HID

>  <FRAG_NAME>  (235) 
ACEM   MIMD

>  <FRAG_ATOM_NUM>  (235) 
fragi: 9  fragj: 12

>  <atom.prop.CHAIN_ID>  (235) 
A A A A A A A A A Z Z Z Z Z Z Z Z Z Z Z Z

>  <atom.prop.IS_HEAVY_ATOM>  (235) 
1 0 0 0 1 1 0 0 1 1 0 0 0 1 1 0 1 1 0 1 0

>  <DIFUSE_FUNC_ATOM>  (235) 
n/a

>  <FINAL_SINGLE_POINT_ENERGY>  (235) 
0

>  <NONCOV_INTER_ENERGY_QM>  (235) 
0

>  <FF_Energy>  (235) 
25.07

>  <QM_Energy>  (235) 
38.06

>  <source>  (235) 
ACEM_MIMD

>  <Index>  (235) 
28875

$$$$
ACEM-pdb4pmn-B-ASN-197:MIMD-pdb4pmn-B-HID-212
     RDKit          3D

 21 20  0  0  0  0  0  0  0  0999 V2000
   -2.9458   -5.2229    0.9856 C   0  0  0  0  0  0  0  0  0  0  0  0
   -3.3261   -5.1818    1.9019 H   0  0  0  0  0  0  0  0  0  0  0  0
   -2.5609   -6.1206    0.8061 H   0  0  0  0  0  0  0  0  0  0  0  0
   -3.7392   -5.0279    0.2641 H   0  0  0  0  0  0  0  0  0  0  0  0
   -1.8300   -4.1939    0.8832 C   0  0  0  0  0  0  0  0  0  0  0  0
   -1.8898   -3.3793   -0.1558 N   0  0  0  0  0  0  0  0  0  0  0  0
   -2.6372   -3.4505   -0.8169 H   0  0  0  0  0  0  0  0  0  0  0  0
   -1.1824   -2.6785   -0.2876 H   0  0  0  0  0  0  0  0  0  0  0  0
   -0.9103   -4.1081    1.7330 O   0  0  0  0  0  0  0  0  0  0  0  0
   -0.1153    2.6520    0.0762 C   0  0  0  0  0  0  0  0  0  0  0  0
    0.0417    3.0207   -0.8447 H   0  0  0  0  0  0  0  0  0  0  0  0
    0.5947    3.0070    0.6922 H   0  0  0  0  0  0  0  0  0  0  0  0
   -1.0882    2.9935    0.4297 H   0  0  0  0  0  0  0  0  0  0  0  0
    0.0161    1.1559    0.0162 C   0  0  0  0  0  0  0  0  0  0  0  0
    1.1218    0.3669    0.0000 C   0  0  0  0  0  0  0  0  0  0  0  0
    2.0639    0.6518   -0.0036 H   0  0  0  0  0  0  0  0  0  0  0  0
    0.6605   -0.9580   -0.0088 N   0  0  0  0  0  0  0  0  0  0  0  0
   -0.6765   -0.9080   -0.0074 C   0  0  0  0  0  0  0  0  0  0  0  0
   -1.2710   -1.7277   -0.0105 H   0  0  0  0  0  0  0  0  0  0  0  0
   -1.1218    0.3431   -0.0000 N   0  0  0  0  0  0  0  0  0  0  0  0
   -2.0474    0.6453   -0.0059 H   0  0  0  0  0  0  0  0  0  0  0  0
  1  5  1  0
  5  6  1  0
  5  9  2  0
  1  2  1  0
  1  3  1  0
  1  4  1  0
  6  7  1  0
  6  8  1  0
 10 14  1  0
 14 15  2  0
 15 17  1  0
 17 18  2  0
 18 20  1  0
 20 14  1  0
 10 11  1  0
 10 12  1  0
 10 13  1  0
 15 16  1  0
 18 19  1  0
 20 21  1  0
M  END
>  <PDB_ID>  (236) 
pdb4pmn

>  <RESIDUE_NAME>  (236) 
ASN   HID

>  <FRAG_NAME>  (236) 
ACEM   MIMD

>  <FRAG_ATOM_NUM>  (236) 
fragi: 9  fragj: 12

>  <atom.prop.CHAIN_ID>  (236) 
A A A A A A A A A Z Z Z Z Z Z Z Z Z Z Z Z

>  <atom.prop.IS_HEAVY_ATOM>  (236) 
1 0 0 0 1 1 0 0 1 1 0 0 0 1 1 0 1 1 0 1 0

>  <DIFUSE_FUNC_ATOM>  (236) 
n/a

>  <FINAL_SINGLE_POINT_ENERGY>  (236) 
0

>  <NONCOV_INTER_ENERGY_QM>  (236) 
0

>  <FF_Energy>  (236) 
22.16

>  <QM_Energy>  (236) 
33.09

>  <source>  (236) 
ACEM_MIMD

>  <Index>  (236) 
28932

$$$$
ACEM-pdb4q9m-A-ASN-136:MIMD-pdb4q9m-A-HID-103
     RDKit          3D

 21 20  0  0  0  0  0  0  0  0999 V2000
   -5.6572   -0.2669    2.3393 C   0  0  0  0  0  0  0  0  0  0  0  0
   -6.2609    0.1610    1.6627 H   0  0  0  0  0  0  0  0  0  0  0  0
   -5.6549    0.2882    3.1742 H   0  0  0  0  0  0  0  0  0  0  0  0
   -6.0708   -1.2443    2.5877 H   0  0  0  0  0  0  0  0  0  0  0  0
   -4.2469   -0.3037    1.7765 C   0  0  0  0  0  0  0  0  0  0  0  0
   -3.6797    0.8315    1.4805 N   0  0  0  0  0  0  0  0  0  0  0  0
   -4.1807    1.6963    1.6364 H   0  0  0  0  0  0  0  0  0  0  0  0
   -2.7539    0.8659    1.1026 H   0  0  0  0  0  0  0  0  0  0  0  0
   -3.6274   -1.3697    1.6273 O   0  0  0  0  0  0  0  0  0  0  0  0
   -0.0450    2.6514   -0.0467 C   0  0  0  0  0  0  0  0  0  0  0  0
   -0.5450    2.9330   -0.8700 H   0  0  0  0  0  0  0  0  0  0  0  0
    0.8917    3.0085   -0.0975 H   0  0  0  0  0  0  0  0  0  0  0  0
   -0.5362    3.0826    0.8256 H   0  0  0  0  0  0  0  0  0  0  0  0
    0.0226    1.1465   -0.0240 C   0  0  0  0  0  0  0  0  0  0  0  0
    1.1130    0.3479   -0.0000 C   0  0  0  0  0  0  0  0  0  0  0  0
    2.0635    0.6389    0.0142 H   0  0  0  0  0  0  0  0  0  0  0  0
    0.6560   -0.9480    0.0019 N   0  0  0  0  0  0  0  0  0  0  0  0
   -0.6786   -0.8973    0.0221 C   0  0  0  0  0  0  0  0  0  0  0  0
   -1.2739   -1.7145    0.0515 H   0  0  0  0  0  0  0  0  0  0  0  0
   -1.1130    0.3509    0.0000 N   0  0  0  0  0  0  0  0  0  0  0  0
   -2.0393    0.6589   -0.0006 H   0  0  0  0  0  0  0  0  0  0  0  0
  1  5  1  0
  5  6  1  0
  5  9  2  0
  1  2  1  0
  1  3  1  0
  1  4  1  0
  6  7  1  0
  6  8  1  0
 10 14  1  0
 14 15  2  0
 15 17  1  0
 17 18  2  0
 18 20  1  0
 20 14  1  0
 10 11  1  0
 10 12  1  0
 10 13  1  0
 15 16  1  0
 18 19  1  0
 20 21  1  0
M  END
>  <PDB_ID>  (237) 
pdb4q9m

>  <RESIDUE_NAME>  (237) 
ASN   HID

>  <FRAG_NAME>  (237) 
ACEM   MIMD

>  <FRAG_ATOM_NUM>  (237) 
fragi: 9  fragj: 12

>  <atom.prop.CHAIN_ID>  (237) 
A A A A A A A A A Z Z Z Z Z Z Z Z Z Z Z Z

>  <atom.prop.IS_HEAVY_ATOM>  (237) 
1 0 0 0 1 1 0 0 1 1 0 0 0 1 1 0 1 1 0 1 0

>  <DIFUSE_FUNC_ATOM>  (237) 
n/a

>  <FINAL_SINGLE_POINT_ENERGY>  (237) 
0

>  <NONCOV_INTER_ENERGY_QM>  (237) 
0

>  <FF_Energy>  (237) 
2.86

>  <QM_Energy>  (237) 
8.08

>  <source>  (237) 
ACEM_MIMD

>  <Index>  (237) 
29317

$$$$
ACEM-pdb3s9d-A-ASN-156:MIMD-pdb3s9d-B-HID-76
     RDKit          3D

 21 20  0  0  0  0  0  0  0  0999 V2000
   -2.1337   -4.4180    1.2771 C   0  0  0  0  0  0  0  0  0  0  0  0
   -2.0856   -3.4933    1.6411 H   0  0  0  0  0  0  0  0  0  0  0  0
   -1.2194   -4.7722    1.1079 H   0  0  0  0  0  0  0  0  0  0  0  0
   -2.6190   -5.0554    2.0162 H   0  0  0  0  0  0  0  0  0  0  0  0
   -2.8900   -4.3804   -0.0393 C   0  0  0  0  0  0  0  0  0  0  0  0
   -2.6757   -3.3284   -0.8222 N   0  0  0  0  0  0  0  0  0  0  0  0
   -2.0341   -2.6162   -0.5292 H   0  0  0  0  0  0  0  0  0  0  0  0
   -3.1484   -3.2468   -1.6962 H   0  0  0  0  0  0  0  0  0  0  0  0
   -3.6549   -5.2901   -0.3485 O   0  0  0  0  0  0  0  0  0  0  0  0
   -0.1754    2.6568   -0.0064 C   0  0  0  0  0  0  0  0  0  0  0  0
    0.6615    3.0663    0.3702 H   0  0  0  0  0  0  0  0  0  0  0  0
   -0.9480    2.8956    0.5903 H   0  0  0  0  0  0  0  0  0  0  0  0
   -0.3557    3.0642   -1.0012 H   0  0  0  0  0  0  0  0  0  0  0  0
   -0.0158    1.1678    0.0053 C   0  0  0  0  0  0  0  0  0  0  0  0
    1.0918    0.3876    0.0000 C   0  0  0  0  0  0  0  0  0  0  0  0
    2.0367    0.7018   -0.0008 H   0  0  0  0  0  0  0  0  0  0  0  0
    0.6684   -0.9189   -0.0024 N   0  0  0  0  0  0  0  0  0  0  0  0
   -0.6526   -0.9416   -0.0028 C   0  0  0  0  0  0  0  0  0  0  0  0
   -1.2203   -1.7593   -0.0037 H   0  0  0  0  0  0  0  0  0  0  0  0
   -1.0918    0.3051   -0.0000 N   0  0  0  0  0  0  0  0  0  0  0  0
   -2.0517    0.5818   -0.0025 H   0  0  0  0  0  0  0  0  0  0  0  0
  1  5  1  0
  5  6  1  0
  5  9  2  0
  1  2  1  0
  1  3  1  0
  1  4  1  0
  6  7  1  0
  6  8  1  0
 10 14  1  0
 14 15  2  0
 15 17  1  0
 17 18  2  0
 18 20  1  0
 20 14  1  0
 10 11  1  0
 10 12  1  0
 10 13  1  0
 15 16  1  0
 18 19  1  0
 20 21  1  0
M  END
>  <PDB_ID>  (238) 
pdb3s9d

>  <RESIDUE_NAME>  (238) 
ASN   HID

>  <FRAG_NAME>  (238) 
ACEM   MIMD

>  <FRAG_ATOM_NUM>  (238) 
fragi: 9  fragj: 12

>  <atom.prop.CHAIN_ID>  (238) 
A A A A A A A A A Z Z Z Z Z Z Z Z Z Z Z Z

>  <atom.prop.IS_HEAVY_ATOM>  (238) 
1 0 0 0 1 1 0 0 1 1 0 0 0 1 1 0 1 1 0 1 0

>  <DIFUSE_FUNC_ATOM>  (238) 
n/a

>  <FINAL_SINGLE_POINT_ENERGY>  (238) 
0

>  <NONCOV_INTER_ENERGY_QM>  (238) 
0

>  <FF_Energy>  (238) 
2.52

>  <QM_Energy>  (238) 
8.27

>  <source>  (238) 
ACEM_MIMD

>  <Index>  (238) 
29325

$$$$
ACEM-pdb4r4u-C-GLN-278:MIMD-pdb4r4u-C-HID-231
     RDKit          3D

 21 20  0  0  0  0  0  0  0  0999 V2000
   -4.9153    2.5156   -0.0188 C   0  0  0  0  0  0  0  0  0  0  0  0
   -5.8911    2.7451   -0.0463 H   0  0  0  0  0  0  0  0  0  0  0  0
   -4.3869    3.3540    0.1344 H   0  0  0  0  0  0  0  0  0  0  0  0
   -4.7338    1.8222    0.8024 H   0  0  0  0  0  0  0  0  0  0  0  0
   -4.5237    1.9487   -1.3733 C   0  0  0  0  0  0  0  0  0  0  0  0
   -3.4439    1.2217   -1.4303 N   0  0  0  0  0  0  0  0  0  0  0  0
   -3.1260    0.7959   -2.3012 H   0  0  0  0  0  0  0  0  0  0  0  0
   -2.8945    1.0714   -0.5746 H   0  0  0  0  0  0  0  0  0  0  0  0
   -5.2043    2.1791   -2.3486 O   0  0  0  0  0  0  0  0  0  0  0  0
   -0.1830    2.6490    0.0273 C   0  0  0  0  0  0  0  0  0  0  0  0
   -0.9231    2.8879   -0.6145 H   0  0  0  0  0  0  0  0  0  0  0  0
    0.6714    3.0658   -0.3077 H   0  0  0  0  0  0  0  0  0  0  0  0
   -0.4171    3.0731    1.0037 H   0  0  0  0  0  0  0  0  0  0  0  0
   -0.0173    1.1650    0.0280 C   0  0  0  0  0  0  0  0  0  0  0  0
    1.0837    0.3973   -0.0000 C   0  0  0  0  0  0  0  0  0  0  0  0
    2.0313    0.7117   -0.0111 H   0  0  0  0  0  0  0  0  0  0  0  0
    0.6657   -0.9084   -0.0089 N   0  0  0  0  0  0  0  0  0  0  0  0
   -0.6483   -0.9458   -0.0191 C   0  0  0  0  0  0  0  0  0  0  0  0
   -1.2098   -1.7668   -0.0369 H   0  0  0  0  0  0  0  0  0  0  0  0
   -1.0837    0.2919   -0.0000 N   0  0  0  0  0  0  0  0  0  0  0  0
   -2.0502    0.5702   -0.0058 H   0  0  0  0  0  0  0  0  0  0  0  0
  1  5  1  0
  5  6  1  0
  5  9  2  0
  1  2  1  0
  1  3  1  0
  1  4  1  0
  6  7  1  0
  6  8  1  0
 10 14  1  0
 14 15  2  0
 15 17  1  0
 17 18  2  0
 18 20  1  0
 20 14  1  0
 10 11  1  0
 10 12  1  0
 10 13  1  0
 15 16  1  0
 18 19  1  0
 20 21  1  0
M  END
>  <PDB_ID>  (239) 
pdb4r4u

>  <RESIDUE_NAME>  (239) 
GLN   HID

>  <FRAG_NAME>  (239) 
ACEM   MIMD

>  <FRAG_ATOM_NUM>  (239) 
fragi: 9  fragj: 12

>  <atom.prop.CHAIN_ID>  (239) 
A A A A A A A A A Z Z Z Z Z Z Z Z Z Z Z Z

>  <atom.prop.IS_HEAVY_ATOM>  (239) 
1 0 0 0 1 1 0 0 1 1 0 0 0 1 1 0 1 1 0 1 0

>  <DIFUSE_FUNC_ATOM>  (239) 
n/a

>  <FINAL_SINGLE_POINT_ENERGY>  (239) 
0

>  <NONCOV_INTER_ENERGY_QM>  (239) 
0

>  <FF_Energy>  (239) 
8.43

>  <QM_Energy>  (239) 
17.73

>  <source>  (239) 
ACEM_MIMD

>  <Index>  (239) 
29905

$$$$
ACEM-pdb3t6q-B-GLN-477:MIMD-pdb3t6q-B-HID-454
     RDKit          3D

 21 20  0  0  0  0  0  0  0  0999 V2000
   -2.3434   -2.7983    2.8400 C   0  0  0  0  0  0  0  0  0  0  0  0
   -1.5389   -2.2491    2.6115 H   0  0  0  0  0  0  0  0  0  0  0  0
   -2.0923   -3.4894    3.5188 H   0  0  0  0  0  0  0  0  0  0  0  0
   -3.0988   -2.1436    3.2747 H   0  0  0  0  0  0  0  0  0  0  0  0
   -2.8303   -3.4886    1.5973 C   0  0  0  0  0  0  0  0  0  0  0  0
   -2.0816   -3.3743    0.5357 N   0  0  0  0  0  0  0  0  0  0  0  0
   -2.3347   -3.8278   -0.3532 H   0  0  0  0  0  0  0  0  0  0  0  0
   -1.2204   -2.8224    0.5812 H   0  0  0  0  0  0  0  0  0  0  0  0
   -3.8816   -4.1009    1.5961 O   0  0  0  0  0  0  0  0  0  0  0  0
   -0.2182    2.6689    0.0119 C   0  0  0  0  0  0  0  0  0  0  0  0
   -0.9358    2.9020   -0.6501 H   0  0  0  0  0  0  0  0  0  0  0  0
    0.6479    3.0757   -0.2909 H   0  0  0  0  0  0  0  0  0  0  0  0
   -0.4838    3.0685    0.9907 H   0  0  0  0  0  0  0  0  0  0  0  0
   -0.0503    1.1652    0.0036 C   0  0  0  0  0  0  0  0  0  0  0  0
    1.0942    0.3745   -0.0000 C   0  0  0  0  0  0  0  0  0  0  0  0
    2.0252    0.7299    0.0004 H   0  0  0  0  0  0  0  0  0  0  0  0
    0.6952   -0.9098   -0.0027 N   0  0  0  0  0  0  0  0  0  0  0  0
   -0.6449   -0.9480   -0.0009 C   0  0  0  0  0  0  0  0  0  0  0  0
   -1.2016   -1.7603    0.0012 H   0  0  0  0  0  0  0  0  0  0  0  0
   -1.0942    0.3181   -0.0000 N   0  0  0  0  0  0  0  0  0  0  0  0
   -2.0665    0.5644   -0.0021 H   0  0  0  0  0  0  0  0  0  0  0  0
  1  5  1  0
  5  6  1  0
  5  9  2  0
  1  2  1  0
  1  3  1  0
  1  4  1  0
  6  7  1  0
  6  8  1  0
 10 14  1  0
 14 15  2  0
 15 17  1  0
 17 18  2  0
 18 20  1  0
 20 14  1  0
 10 11  1  0
 10 12  1  0
 10 13  1  0
 15 16  1  0
 18 19  1  0
 20 21  1  0
M  END
>  <PDB_ID>  (240) 
pdb3t6q

>  <RESIDUE_NAME>  (240) 
GLN   HID

>  <FRAG_NAME>  (240) 
ACEM   MIMD

>  <FRAG_ATOM_NUM>  (240) 
fragi: 9  fragj: 12

>  <atom.prop.CHAIN_ID>  (240) 
A A A A A A A A A Z Z Z Z Z Z Z Z Z Z Z Z

>  <atom.prop.IS_HEAVY_ATOM>  (240) 
1 0 0 0 1 1 0 0 1 1 0 0 0 1 1 0 1 1 0 1 0

>  <DIFUSE_FUNC_ATOM>  (240) 
n/a

>  <FINAL_SINGLE_POINT_ENERGY>  (240) 
0

>  <NONCOV_INTER_ENERGY_QM>  (240) 
0

>  <FF_Energy>  (240) 
5.71

>  <QM_Energy>  (240) 
14.2

>  <source>  (240) 
ACEM_MIMD

>  <Index>  (240) 
29955

$$$$
ACEM-pdb4rk4-A-ASN-145:MIMD-pdb4rk4-A-HID-160
     RDKit          3D

 21 20  0  0  0  0  0  0  0  0999 V2000
   -2.8433   -5.3763   -0.4152 C   0  0  0  0  0  0  0  0  0  0  0  0
   -2.8462   -5.9265    0.4224 H   0  0  0  0  0  0  0  0  0  0  0  0
   -2.7322   -5.9807   -1.2067 H   0  0  0  0  0  0  0  0  0  0  0  0
   -3.8143   -4.8884   -0.5004 H   0  0  0  0  0  0  0  0  0  0  0  0
   -1.6920   -4.4173   -0.3659 C   0  0  0  0  0  0  0  0  0  0  0  0
   -1.9068   -3.2727    0.2429 N   0  0  0  0  0  0  0  0  0  0  0  0
   -2.8008   -3.0735    0.6526 H   0  0  0  0  0  0  0  0  0  0  0  0
   -1.1763   -2.5856    0.3056 H   0  0  0  0  0  0  0  0  0  0  0  0
   -0.6483   -4.6891   -0.9257 O   0  0  0  0  0  0  0  0  0  0  0  0
   -0.1507    2.6200    0.0074 C   0  0  0  0  0  0  0  0  0  0  0  0
   -1.0895    2.8608   -0.2542 H   0  0  0  0  0  0  0  0  0  0  0  0
    0.4828    3.0088   -0.6678 H   0  0  0  0  0  0  0  0  0  0  0  0
    0.0611    3.0763    0.9743 H   0  0  0  0  0  0  0  0  0  0  0  0
   -0.0093    1.1571    0.0207 C   0  0  0  0  0  0  0  0  0  0  0  0
    1.0827    0.3871   -0.0000 C   0  0  0  0  0  0  0  0  0  0  0  0
    2.0360    0.6971   -0.0111 H   0  0  0  0  0  0  0  0  0  0  0  0
    0.6676   -0.9219   -0.0036 N   0  0  0  0  0  0  0  0  0  0  0  0
   -0.6583   -0.9298   -0.0171 C   0  0  0  0  0  0  0  0  0  0  0  0
   -1.2277   -1.7501   -0.0353 H   0  0  0  0  0  0  0  0  0  0  0  0
   -1.0827    0.3075    0.0000 N   0  0  0  0  0  0  0  0  0  0  0  0
   -2.0459    0.5944   -0.0024 H   0  0  0  0  0  0  0  0  0  0  0  0
  1  5  1  0
  5  6  1  0
  5  9  2  0
  1  2  1  0
  1  3  1  0
  1  4  1  0
  6  7  1  0
  6  8  1  0
 10 14  1  0
 14 15  2  0
 15 17  1  0
 17 18  2  0
 18 20  1  0
 20 14  1  0
 10 11  1  0
 10 12  1  0
 10 13  1  0
 15 16  1  0
 18 19  1  0
 20 21  1  0
M  END
>  <PDB_ID>  (241) 
pdb4rk4

>  <RESIDUE_NAME>  (241) 
ASN   HID

>  <FRAG_NAME>  (241) 
ACEM   MIMD

>  <FRAG_ATOM_NUM>  (241) 
fragi: 9  fragj: 12

>  <atom.prop.CHAIN_ID>  (241) 
A A A A A A A A A Z Z Z Z Z Z Z Z Z Z Z Z

>  <atom.prop.IS_HEAVY_ATOM>  (241) 
1 0 0 0 1 1 0 0 1 1 0 0 0 1 1 0 1 1 0 1 0

>  <DIFUSE_FUNC_ATOM>  (241) 
n/a

>  <FINAL_SINGLE_POINT_ENERGY>  (241) 
0

>  <NONCOV_INTER_ENERGY_QM>  (241) 
0

>  <FF_Energy>  (241) 
38.18

>  <QM_Energy>  (241) 
46.14

>  <source>  (241) 
ACEM_MIMD

>  <Index>  (241) 
30248

$$$$
ACEM-pdb4rny-A-GLN-97:MIMD-pdb4rny-A-HID-109
     RDKit          3D

 21 20  0  0  0  0  0  0  0  0999 V2000
   -2.7326   -4.4909    0.5682 C   0  0  0  0  0  0  0  0  0  0  0  0
   -2.3052   -4.1575    1.4214 H   0  0  0  0  0  0  0  0  0  0  0  0
   -3.0635   -5.4311    0.7362 H   0  0  0  0  0  0  0  0  0  0  0  0
   -3.5956   -3.8611    0.3522 H   0  0  0  0  0  0  0  0  0  0  0  0
   -1.6957   -4.5272   -0.5110 C   0  0  0  0  0  0  0  0  0  0  0  0
   -1.3657   -3.3615   -1.0978 N   0  0  0  0  0  0  0  0  0  0  0  0
   -0.6673   -3.3162   -1.8188 H   0  0  0  0  0  0  0  0  0  0  0  0
   -1.8502   -2.5166   -0.7867 H   0  0  0  0  0  0  0  0  0  0  0  0
   -1.2046   -5.6104   -0.8487 O   0  0  0  0  0  0  0  0  0  0  0  0
   -0.1843    2.6451    0.1282 C   0  0  0  0  0  0  0  0  0  0  0  0
   -0.1433    3.0163   -0.8114 H   0  0  0  0  0  0  0  0  0  0  0  0
    0.6023    3.0205    0.6414 H   0  0  0  0  0  0  0  0  0  0  0  0
   -1.1109    2.9666    0.6039 H   0  0  0  0  0  0  0  0  0  0  0  0
   -0.0155    1.1625    0.0464 C   0  0  0  0  0  0  0  0  0  0  0  0
    1.0869    0.3931   -0.0000 C   0  0  0  0  0  0  0  0  0  0  0  0
    2.0336    0.7069   -0.0194 H   0  0  0  0  0  0  0  0  0  0  0  0
    0.6659   -0.9125   -0.0146 N   0  0  0  0  0  0  0  0  0  0  0  0
   -0.6504   -0.9430   -0.0318 C   0  0  0  0  0  0  0  0  0  0  0  0
   -1.2157   -1.7612   -0.0617 H   0  0  0  0  0  0  0  0  0  0  0  0
   -1.0869    0.3000    0.0000 N   0  0  0  0  0  0  0  0  0  0  0  0
   -2.0498    0.5777   -0.0091 H   0  0  0  0  0  0  0  0  0  0  0  0
  1  5  1  0
  5  6  1  0
  5  9  2  0
  1  2  1  0
  1  3  1  0
  1  4  1  0
  6  7  1  0
  6  8  1  0
 10 14  1  0
 14 15  2  0
 15 17  1  0
 17 18  2  0
 18 20  1  0
 20 14  1  0
 10 11  1  0
 10 12  1  0
 10 13  1  0
 15 16  1  0
 18 19  1  0
 20 21  1  0
M  END
>  <PDB_ID>  (242) 
pdb4rny

>  <RESIDUE_NAME>  (242) 
GLN   HID

>  <FRAG_NAME>  (242) 
ACEM   MIMD

>  <FRAG_ATOM_NUM>  (242) 
fragi: 9  fragj: 12

>  <atom.prop.CHAIN_ID>  (242) 
A A A A A A A A A Z Z Z Z Z Z Z Z Z Z Z Z

>  <atom.prop.IS_HEAVY_ATOM>  (242) 
1 0 0 0 1 1 0 0 1 1 0 0 0 1 1 0 1 1 0 1 0

>  <DIFUSE_FUNC_ATOM>  (242) 
n/a

>  <FINAL_SINGLE_POINT_ENERGY>  (242) 
0

>  <NONCOV_INTER_ENERGY_QM>  (242) 
0

>  <FF_Energy>  (242) 
10.17

>  <QM_Energy>  (242) 
18.67

>  <source>  (242) 
ACEM_MIMD

>  <Index>  (242) 
30330

$$$$
ACEM-pdb4tlx-A-ASN-303:MIMD-pdb4tlx-A-HID-227
     RDKit          3D

 21 20  0  0  0  0  0  0  0  0999 V2000
   -3.2291    0.6444   -3.0210 C   0  0  0  0  0  0  0  0  0  0  0  0
   -3.0717   -0.2479   -3.4310 H   0  0  0  0  0  0  0  0  0  0  0  0
   -2.4041    0.9680   -2.5680 H   0  0  0  0  0  0  0  0  0  0  0  0
   -3.4817    1.3471   -3.8151 H   0  0  0  0  0  0  0  0  0  0  0  0
   -4.3341    0.5139   -1.9829 C   0  0  0  0  0  0  0  0  0  0  0  0
   -3.9320    0.3952   -0.7181 N   0  0  0  0  0  0  0  0  0  0  0  0
   -2.9582    0.4021   -0.4978 H   0  0  0  0  0  0  0  0  0  0  0  0
   -4.6084    0.3003    0.0129 H   0  0  0  0  0  0  0  0  0  0  0  0
   -5.5437    0.5265   -2.3062 O   0  0  0  0  0  0  0  0  0  0  0  0
   -0.1905    2.6530    0.0093 C   0  0  0  0  0  0  0  0  0  0  0  0
    0.5372    3.0584    0.5703 H   0  0  0  0  0  0  0  0  0  0  0  0
   -1.0786    2.8735    0.4237 H   0  0  0  0  0  0  0  0  0  0  0  0
   -0.1496    3.0822   -0.9918 H   0  0  0  0  0  0  0  0  0  0  0  0
   -0.0220    1.1694    0.0190 C   0  0  0  0  0  0  0  0  0  0  0  0
    1.0932    0.3920   -0.0000 C   0  0  0  0  0  0  0  0  0  0  0  0
    2.0348    0.7098   -0.0061 H   0  0  0  0  0  0  0  0  0  0  0  0
    0.6723   -0.9170   -0.0066 N   0  0  0  0  0  0  0  0  0  0  0  0
   -0.6503   -0.9425   -0.0124 C   0  0  0  0  0  0  0  0  0  0  0  0
   -1.2139   -1.7653   -0.0230 H   0  0  0  0  0  0  0  0  0  0  0  0
   -1.0932    0.2981   -0.0000 N   0  0  0  0  0  0  0  0  0  0  0  0
   -2.0555    0.5725   -0.0027 H   0  0  0  0  0  0  0  0  0  0  0  0
  1  5  1  0
  5  6  1  0
  5  9  2  0
  1  2  1  0
  1  3  1  0
  1  4  1  0
  6  7  1  0
  6  8  1  0
 10 14  1  0
 14 15  2  0
 15 17  1  0
 17 18  2  0
 18 20  1  0
 20 14  1  0
 10 11  1  0
 10 12  1  0
 10 13  1  0
 15 16  1  0
 18 19  1  0
 20 21  1  0
M  END
>  <PDB_ID>  (243) 
pdb4tlx

>  <RESIDUE_NAME>  (243) 
ASN   HID

>  <FRAG_NAME>  (243) 
ACEM   MIMD

>  <FRAG_ATOM_NUM>  (243) 
fragi: 9  fragj: 12

>  <atom.prop.CHAIN_ID>  (243) 
A A A A A A A A A Z Z Z Z Z Z Z Z Z Z Z Z

>  <atom.prop.IS_HEAVY_ATOM>  (243) 
1 0 0 0 1 1 0 0 1 1 0 0 0 1 1 0 1 1 0 1 0

>  <DIFUSE_FUNC_ATOM>  (243) 
n/a

>  <FINAL_SINGLE_POINT_ENERGY>  (243) 
0

>  <NONCOV_INTER_ENERGY_QM>  (243) 
0

>  <FF_Energy>  (243) 
9.98

>  <QM_Energy>  (243) 
22.13

>  <source>  (243) 
ACEM_MIMD

>  <Index>  (243) 
30698

$$$$
ACEM-pdb4tlx-B-ASN-303:MIMD-pdb4tlx-B-HID-227
     RDKit          3D

 21 20  0  0  0  0  0  0  0  0999 V2000
   -3.3083    0.4984   -2.9175 C   0  0  0  0  0  0  0  0  0  0  0  0
   -3.1088   -0.3925   -3.3272 H   0  0  0  0  0  0  0  0  0  0  0  0
   -2.4873    0.8472   -2.4637 H   0  0  0  0  0  0  0  0  0  0  0  0
   -3.5822    1.1910   -3.7134 H   0  0  0  0  0  0  0  0  0  0  0  0
   -4.3944    0.3046   -1.8594 C   0  0  0  0  0  0  0  0  0  0  0  0
   -3.9839    0.2362   -0.6046 N   0  0  0  0  0  0  0  0  0  0  0  0
   -3.0078    0.3167   -0.3885 H   0  0  0  0  0  0  0  0  0  0  0  0
   -4.6451    0.1050    0.1363 H   0  0  0  0  0  0  0  0  0  0  0  0
   -5.5843    0.2000   -2.1711 O   0  0  0  0  0  0  0  0  0  0  0  0
   -0.1802    2.6569   -0.0182 C   0  0  0  0  0  0  0  0  0  0  0  0
    0.5683    3.0692    0.5078 H   0  0  0  0  0  0  0  0  0  0  0  0
   -1.0527    2.8920    0.4177 H   0  0  0  0  0  0  0  0  0  0  0  0
   -0.1691    3.0642   -1.0292 H   0  0  0  0  0  0  0  0  0  0  0  0
   -0.0199    1.1716    0.0133 C   0  0  0  0  0  0  0  0  0  0  0  0
    1.0942    0.3889   -0.0000 C   0  0  0  0  0  0  0  0  0  0  0  0
    2.0361    0.7065    0.0008 H   0  0  0  0  0  0  0  0  0  0  0  0
    0.6692   -0.9164   -0.0121 N   0  0  0  0  0  0  0  0  0  0  0  0
   -0.6493   -0.9451   -0.0011 C   0  0  0  0  0  0  0  0  0  0  0  0
   -1.2149   -1.7649    0.0064 H   0  0  0  0  0  0  0  0  0  0  0  0
   -1.0942    0.3010   -0.0000 N   0  0  0  0  0  0  0  0  0  0  0  0
   -2.0542    0.5745   -0.0083 H   0  0  0  0  0  0  0  0  0  0  0  0
  1  5  1  0
  5  6  1  0
  5  9  2  0
  1  2  1  0
  1  3  1  0
  1  4  1  0
  6  7  1  0
  6  8  1  0
 10 14  1  0
 14 15  2  0
 15 17  1  0
 17 18  2  0
 18 20  1  0
 20 14  1  0
 10 11  1  0
 10 12  1  0
 10 13  1  0
 15 16  1  0
 18 19  1  0
 20 21  1  0
M  END
>  <PDB_ID>  (244) 
pdb4tlx

>  <RESIDUE_NAME>  (244) 
ASN   HID

>  <FRAG_NAME>  (244) 
ACEM   MIMD

>  <FRAG_ATOM_NUM>  (244) 
fragi: 9  fragj: 12

>  <atom.prop.CHAIN_ID>  (244) 
A A A A A A A A A Z Z Z Z Z Z Z Z Z Z Z Z

>  <atom.prop.IS_HEAVY_ATOM>  (244) 
1 0 0 0 1 1 0 0 1 1 0 0 0 1 1 0 1 1 0 1 0

>  <DIFUSE_FUNC_ATOM>  (244) 
n/a

>  <FINAL_SINGLE_POINT_ENERGY>  (244) 
0

>  <NONCOV_INTER_ENERGY_QM>  (244) 
0

>  <FF_Energy>  (244) 
9.74

>  <QM_Energy>  (244) 
21.0

>  <source>  (244) 
ACEM_MIMD

>  <Index>  (244) 
30700

$$$$
ACEM-pdb4tlx-C-ASN-303:MIMD-pdb4tlx-C-HID-227
     RDKit          3D

 21 20  0  0  0  0  0  0  0  0999 V2000
   -2.8276    0.3276   -3.2255 C   0  0  0  0  0  0  0  0  0  0  0  0
   -2.5908   -0.5611   -3.6009 H   0  0  0  0  0  0  0  0  0  0  0  0
   -2.0591    0.7131   -2.7286 H   0  0  0  0  0  0  0  0  0  0  0  0
   -3.0789    0.9962   -4.0488 H   0  0  0  0  0  0  0  0  0  0  0  0
   -3.9915    0.1398   -2.2416 C   0  0  0  0  0  0  0  0  0  0  0  0
   -3.6629    0.0722   -0.9477 N   0  0  0  0  0  0  0  0  0  0  0  0
   -2.7036    0.1500   -0.6761 H   0  0  0  0  0  0  0  0  0  0  0  0
   -4.3734   -0.0545   -0.2596 H   0  0  0  0  0  0  0  0  0  0  0  0
   -5.1674    0.0582   -2.6373 O   0  0  0  0  0  0  0  0  0  0  0  0
   -0.1935    2.6573   -0.0375 C   0  0  0  0  0  0  0  0  0  0  0  0
    0.5225    3.0710    0.5304 H   0  0  0  0  0  0  0  0  0  0  0  0
   -1.0899    2.8852    0.3509 H   0  0  0  0  0  0  0  0  0  0  0  0
   -0.1310    3.0760   -1.0419 H   0  0  0  0  0  0  0  0  0  0  0  0
   -0.0262    1.1675   -0.0025 C   0  0  0  0  0  0  0  0  0  0  0  0
    1.0925    0.3960    0.0000 C   0  0  0  0  0  0  0  0  0  0  0  0
    2.0322    0.7150    0.0005 H   0  0  0  0  0  0  0  0  0  0  0  0
    0.6727   -0.9155    0.0032 N   0  0  0  0  0  0  0  0  0  0  0  0
   -0.6466   -0.9469   -0.0007 C   0  0  0  0  0  0  0  0  0  0  0  0
   -1.2110   -1.7674   -0.0026 H   0  0  0  0  0  0  0  0  0  0  0  0
   -1.0925    0.2989   -0.0000 N   0  0  0  0  0  0  0  0  0  0  0  0
   -2.0571    0.5673    0.0015 H   0  0  0  0  0  0  0  0  0  0  0  0
  1  5  1  0
  5  6  1  0
  5  9  2  0
  1  2  1  0
  1  3  1  0
  1  4  1  0
  6  7  1  0
  6  8  1  0
 10 14  1  0
 14 15  2  0
 15 17  1  0
 17 18  2  0
 18 20  1  0
 20 14  1  0
 10 11  1  0
 10 12  1  0
 10 13  1  0
 15 16  1  0
 18 19  1  0
 20 21  1  0
M  END
>  <PDB_ID>  (245) 
pdb4tlx

>  <RESIDUE_NAME>  (245) 
ASN   HID

>  <FRAG_NAME>  (245) 
ACEM   MIMD

>  <FRAG_ATOM_NUM>  (245) 
fragi: 9  fragj: 12

>  <atom.prop.CHAIN_ID>  (245) 
A A A A A A A A A Z Z Z Z Z Z Z Z Z Z Z Z

>  <atom.prop.IS_HEAVY_ATOM>  (245) 
1 0 0 0 1 1 0 0 1 1 0 0 0 1 1 0 1 1 0 1 0

>  <DIFUSE_FUNC_ATOM>  (245) 
n/a

>  <FINAL_SINGLE_POINT_ENERGY>  (245) 
0

>  <NONCOV_INTER_ENERGY_QM>  (245) 
0

>  <FF_Energy>  (245) 
12.05

>  <QM_Energy>  (245) 
26.13

>  <source>  (245) 
ACEM_MIMD

>  <Index>  (245) 
30701

$$$$
ACEM-pdb3u5t-C-GLN-141:MIMD-pdb3u5t-C-HID-146
     RDKit          3D

 21 20  0  0  0  0  0  0  0  0999 V2000
   -4.2998    2.1192    3.5596 C   0  0  0  0  0  0  0  0  0  0  0  0
   -4.6643    1.1913    3.5714 H   0  0  0  0  0  0  0  0  0  0  0  0
   -4.9581    2.7371    3.1357 H   0  0  0  0  0  0  0  0  0  0  0  0
   -4.1316    2.4406    4.5875 H   0  0  0  0  0  0  0  0  0  0  0  0
   -3.0265    2.1329    2.7521 C   0  0  0  0  0  0  0  0  0  0  0  0
   -3.0038    1.3870    1.6482 N   0  0  0  0  0  0  0  0  0  0  0  0
   -2.1862    1.3591    1.0494 H   0  0  0  0  0  0  0  0  0  0  0  0
   -3.8326    0.8385    1.4139 H   0  0  0  0  0  0  0  0  0  0  0  0
   -2.0689    2.8144    3.1133 O   0  0  0  0  0  0  0  0  0  0  0  0
   -0.1669    2.6506   -0.0232 C   0  0  0  0  0  0  0  0  0  0  0  0
   -1.0698    2.8799    0.3620 H   0  0  0  0  0  0  0  0  0  0  0  0
   -0.1442    2.9657   -0.9806 H   0  0  0  0  0  0  0  0  0  0  0  0
    0.6009    3.1823    0.5390 H   0  0  0  0  0  0  0  0  0  0  0  0
   -0.0103    1.1697   -0.0098 C   0  0  0  0  0  0  0  0  0  0  0  0
    1.0925    0.3832    0.0000 C   0  0  0  0  0  0  0  0  0  0  0  0
    2.0414    0.6956    0.0033 H   0  0  0  0  0  0  0  0  0  0  0  0
    0.6690   -0.9215    0.0057 N   0  0  0  0  0  0  0  0  0  0  0  0
   -0.6586   -0.9372    0.0041 C   0  0  0  0  0  0  0  0  0  0  0  0
   -1.2252   -1.7564    0.0071 H   0  0  0  0  0  0  0  0  0  0  0  0
   -1.0925    0.3057   -0.0000 N   0  0  0  0  0  0  0  0  0  0  0  0
   -2.0510    0.5903    0.0022 H   0  0  0  0  0  0  0  0  0  0  0  0
  1  5  1  0
  5  6  1  0
  5  9  2  0
  1  2  1  0
  1  3  1  0
  1  4  1  0
  6  7  1  0
  6  8  1  0
 10 14  1  0
 14 15  2  0
 15 17  1  0
 17 18  2  0
 18 20  1  0
 20 14  1  0
 10 11  1  0
 10 12  1  0
 10 13  1  0
 15 16  1  0
 18 19  1  0
 20 21  1  0
M  END
>  <PDB_ID>  (246) 
pdb3u5t

>  <RESIDUE_NAME>  (246) 
GLN   HID

>  <FRAG_NAME>  (246) 
ACEM   MIMD

>  <FRAG_ATOM_NUM>  (246) 
fragi: 9  fragj: 12

>  <atom.prop.CHAIN_ID>  (246) 
A A A A A A A A A Z Z Z Z Z Z Z Z Z Z Z Z

>  <atom.prop.IS_HEAVY_ATOM>  (246) 
1 0 0 0 1 1 0 0 1 1 0 0 0 1 1 0 1 1 0 1 0

>  <DIFUSE_FUNC_ATOM>  (246) 
n/a

>  <FINAL_SINGLE_POINT_ENERGY>  (246) 
0

>  <NONCOV_INTER_ENERGY_QM>  (246) 
0

>  <FF_Energy>  (246) 
7.38

>  <QM_Energy>  (246) 
15.24

>  <source>  (246) 
ACEM_MIMD

>  <Index>  (246) 
30857

$$$$
ACEM-pdb3ul5-D-GLN-59:MIMD-pdb3ul5-C-HID-67
     RDKit          3D

 21 20  0  0  0  0  0  0  0  0999 V2000
   -3.6336   -4.1317   -1.0340 C   0  0  0  0  0  0  0  0  0  0  0  0
   -4.1321   -4.7803   -0.4594 H   0  0  0  0  0  0  0  0  0  0  0  0
   -3.9308   -4.2269   -1.9830 H   0  0  0  0  0  0  0  0  0  0  0  0
   -3.8566   -3.1198   -0.6959 H   0  0  0  0  0  0  0  0  0  0  0  0
   -2.1542   -4.4565   -0.9555 C   0  0  0  0  0  0  0  0  0  0  0  0
   -1.3501   -3.4674   -0.5862 N   0  0  0  0  0  0  0  0  0  0  0  0
   -0.3471   -3.6133   -0.4979 H   0  0  0  0  0  0  0  0  0  0  0  0
   -1.7542   -2.5514   -0.3912 H   0  0  0  0  0  0  0  0  0  0  0  0
   -1.7393   -5.5836   -1.2278 O   0  0  0  0  0  0  0  0  0  0  0  0
   -0.1709    2.6565    0.0012 C   0  0  0  0  0  0  0  0  0  0  0  0
   -0.9135    2.8967   -0.6334 H   0  0  0  0  0  0  0  0  0  0  0  0
    0.6838    3.0636   -0.3401 H   0  0  0  0  0  0  0  0  0  0  0  0
   -0.3944    3.0736    0.9831 H   0  0  0  0  0  0  0  0  0  0  0  0
   -0.0152    1.1675    0.0011 C   0  0  0  0  0  0  0  0  0  0  0  0
    1.0913    0.3871    0.0000 C   0  0  0  0  0  0  0  0  0  0  0  0
    2.0378    0.7008   -0.0004 H   0  0  0  0  0  0  0  0  0  0  0  0
    0.6675   -0.9190   -0.0005 N   0  0  0  0  0  0  0  0  0  0  0  0
   -0.6524   -0.9416   -0.0006 C   0  0  0  0  0  0  0  0  0  0  0  0
   -1.2214   -1.7583    0.0012 H   0  0  0  0  0  0  0  0  0  0  0  0
   -1.0913    0.3060    0.0000 N   0  0  0  0  0  0  0  0  0  0  0  0
   -2.0516    0.5832    0.0003 H   0  0  0  0  0  0  0  0  0  0  0  0
  1  5  1  0
  5  6  1  0
  5  9  2  0
  1  2  1  0
  1  3  1  0
  1  4  1  0
  6  7  1  0
  6  8  1  0
 10 14  1  0
 14 15  2  0
 15 17  1  0
 17 18  2  0
 18 20  1  0
 20 14  1  0
 10 11  1  0
 10 12  1  0
 10 13  1  0
 15 16  1  0
 18 19  1  0
 20 21  1  0
M  END
>  <PDB_ID>  (247) 
pdb3ul5

>  <RESIDUE_NAME>  (247) 
GLN   HID

>  <FRAG_NAME>  (247) 
ACEM   MIMD

>  <FRAG_ATOM_NUM>  (247) 
fragi: 9  fragj: 12

>  <atom.prop.CHAIN_ID>  (247) 
A A A A A A A A A Z Z Z Z Z Z Z Z Z Z Z Z

>  <atom.prop.IS_HEAVY_ATOM>  (247) 
1 0 0 0 1 1 0 0 1 1 0 0 0 1 1 0 1 1 0 1 0

>  <DIFUSE_FUNC_ATOM>  (247) 
n/a

>  <FINAL_SINGLE_POINT_ENERGY>  (247) 
0

>  <NONCOV_INTER_ENERGY_QM>  (247) 
0

>  <FF_Energy>  (247) 
17.56

>  <QM_Energy>  (247) 
28.55

>  <source>  (247) 
ACEM_MIMD

>  <Index>  (247) 
31085

$$$$
ACEM-pdb3ukf-F-ASN-488:MIMD-pdb3ukf-F-HID-460
     RDKit          3D

 21 20  0  0  0  0  0  0  0  0999 V2000
   -1.6250   -5.4560    2.5087 C   0  0  0  0  0  0  0  0  0  0  0  0
   -1.7188   -5.5007    3.4979 H   0  0  0  0  0  0  0  0  0  0  0  0
   -1.0703   -6.2119    2.1778 H   0  0  0  0  0  0  0  0  0  0  0  0
   -2.6174   -5.5384    2.0654 H   0  0  0  0  0  0  0  0  0  0  0  0
   -0.9331   -4.1510    2.1457 C   0  0  0  0  0  0  0  0  0  0  0  0
   -1.2162   -3.6353    0.9547 N   0  0  0  0  0  0  0  0  0  0  0  0
   -1.8645   -4.1076    0.3530 H   0  0  0  0  0  0  0  0  0  0  0  0
   -0.7886   -2.7836    0.6598 H   0  0  0  0  0  0  0  0  0  0  0  0
   -0.1517   -3.6159    2.9317 O   0  0  0  0  0  0  0  0  0  0  0  0
   -0.1830    2.6563    0.0152 C   0  0  0  0  0  0  0  0  0  0  0  0
    0.6721    3.0704   -0.3226 H   0  0  0  0  0  0  0  0  0  0  0  0
   -0.3227    2.9549    0.9681 H   0  0  0  0  0  0  0  0  0  0  0  0
   -1.0134    3.0165   -0.5921 H   0  0  0  0  0  0  0  0  0  0  0  0
   -0.0177    1.1658    0.0100 C   0  0  0  0  0  0  0  0  0  0  0  0
    1.0913    0.3911   -0.0000 C   0  0  0  0  0  0  0  0  0  0  0  0
    2.0358    0.7051   -0.0031 H   0  0  0  0  0  0  0  0  0  0  0  0
    0.6694   -0.9175   -0.0052 N   0  0  0  0  0  0  0  0  0  0  0  0
   -0.6517   -0.9445   -0.0048 C   0  0  0  0  0  0  0  0  0  0  0  0
   -1.2182   -1.7614   -0.0068 H   0  0  0  0  0  0  0  0  0  0  0  0
   -1.0913    0.3051    0.0000 N   0  0  0  0  0  0  0  0  0  0  0  0
   -2.0523    0.5793   -0.0045 H   0  0  0  0  0  0  0  0  0  0  0  0
  1  5  1  0
  5  6  1  0
  5  9  2  0
  1  2  1  0
  1  3  1  0
  1  4  1  0
  6  7  1  0
  6  8  1  0
 10 14  1  0
 14 15  2  0
 15 17  1  0
 17 18  2  0
 18 20  1  0
 20 14  1  0
 10 11  1  0
 10 12  1  0
 10 13  1  0
 15 16  1  0
 18 19  1  0
 20 21  1  0
M  END
>  <PDB_ID>  (248) 
pdb3ukf

>  <RESIDUE_NAME>  (248) 
ASN   HID

>  <FRAG_NAME>  (248) 
ACEM   MIMD

>  <FRAG_ATOM_NUM>  (248) 
fragi: 9  fragj: 12

>  <atom.prop.CHAIN_ID>  (248) 
A A A A A A A A A Z Z Z Z Z Z Z Z Z Z Z Z

>  <atom.prop.IS_HEAVY_ATOM>  (248) 
1 0 0 0 1 1 0 0 1 1 0 0 0 1 1 0 1 1 0 1 0

>  <DIFUSE_FUNC_ATOM>  (248) 
n/a

>  <FINAL_SINGLE_POINT_ENERGY>  (248) 
0

>  <NONCOV_INTER_ENERGY_QM>  (248) 
0

>  <FF_Energy>  (248) 
3.98

>  <QM_Energy>  (248) 
12.14

>  <source>  (248) 
ACEM_MIMD

>  <Index>  (248) 
31091

$$$$
ACEM-pdb4ueg-A-GLN-44:MIMD-pdb4ueg-B-HID-250
     RDKit          3D

 21 20  0  0  0  0  0  0  0  0999 V2000
   -6.4206    0.3937    0.8606 C   0  0  0  0  0  0  0  0  0  0  0  0
   -6.8830    0.0802    0.0295 H   0  0  0  0  0  0  0  0  0  0  0  0
   -6.5343    1.3843    0.9487 H   0  0  0  0  0  0  0  0  0  0  0  0
   -6.8854   -0.0886    1.7205 H   0  0  0  0  0  0  0  0  0  0  0  0
   -4.9390    0.0867    0.7336 C   0  0  0  0  0  0  0  0  0  0  0  0
   -4.1858    1.0427    0.1998 N   0  0  0  0  0  0  0  0  0  0  0  0
   -3.1813    0.9153    0.0950 H   0  0  0  0  0  0  0  0  0  0  0  0
   -4.6291    1.9065   -0.1037 H   0  0  0  0  0  0  0  0  0  0  0  0
   -4.4728   -0.9894    1.1183 O   0  0  0  0  0  0  0  0  0  0  0  0
   -0.1740    2.6551    0.0122 C   0  0  0  0  0  0  0  0  0  0  0  0
   -0.6806    2.9282   -0.8112 H   0  0  0  0  0  0  0  0  0  0  0  0
    0.7404    3.0718   -0.0203 H   0  0  0  0  0  0  0  0  0  0  0  0
   -0.7001    3.0290    0.8904 H   0  0  0  0  0  0  0  0  0  0  0  0
   -0.0161    1.1675   -0.0008 C   0  0  0  0  0  0  0  0  0  0  0  0
    1.0911    0.3895    0.0000 C   0  0  0  0  0  0  0  0  0  0  0  0
    2.0370    0.7036    0.0014 H   0  0  0  0  0  0  0  0  0  0  0  0
    0.6687   -0.9180   -0.0001 N   0  0  0  0  0  0  0  0  0  0  0  0
   -0.6525   -0.9423    0.0009 C   0  0  0  0  0  0  0  0  0  0  0  0
   -1.2193   -1.7611    0.0034 H   0  0  0  0  0  0  0  0  0  0  0  0
   -1.0911    0.3033   -0.0000 N   0  0  0  0  0  0  0  0  0  0  0  0
   -2.0522    0.5809   -0.0009 H   0  0  0  0  0  0  0  0  0  0  0  0
  1  5  1  0
  5  6  1  0
  5  9  2  0
  1  2  1  0
  1  3  1  0
  1  4  1  0
  6  7  1  0
  6  8  1  0
 10 14  1  0
 14 15  2  0
 15 17  1  0
 17 18  2  0
 18 20  1  0
 20 14  1  0
 10 11  1  0
 10 12  1  0
 10 13  1  0
 15 16  1  0
 18 19  1  0
 20 21  1  0
M  END
>  <PDB_ID>  (249) 
pdb4ueg

>  <RESIDUE_NAME>  (249) 
GLN   HID

>  <FRAG_NAME>  (249) 
ACEM   MIMD

>  <FRAG_ATOM_NUM>  (249) 
fragi: 9  fragj: 12

>  <atom.prop.CHAIN_ID>  (249) 
A A A A A A A A A Z Z Z Z Z Z Z Z Z Z Z Z

>  <atom.prop.IS_HEAVY_ATOM>  (249) 
1 0 0 0 1 1 0 0 1 1 0 0 0 1 1 0 1 1 0 1 0

>  <DIFUSE_FUNC_ATOM>  (249) 
n/a

>  <FINAL_SINGLE_POINT_ENERGY>  (249) 
0

>  <NONCOV_INTER_ENERGY_QM>  (249) 
0

>  <FF_Energy>  (249) 
5.95

>  <QM_Energy>  (249) 
13.39

>  <source>  (249) 
ACEM_MIMD

>  <Index>  (249) 
31208

$$$$
ACEM-pdb3uxy-B-GLN-165:MIMD-pdb3uxy-B-HID-162
     RDKit          3D

 21 20  0  0  0  0  0  0  0  0999 V2000
   -5.5698    2.9683   -0.3493 C   0  0  0  0  0  0  0  0  0  0  0  0
   -6.5000    2.8496   -0.0219 H   0  0  0  0  0  0  0  0  0  0  0  0
   -5.5603    3.0980   -1.3340 H   0  0  0  0  0  0  0  0  0  0  0  0
   -5.1495    3.8576    0.1203 H   0  0  0  0  0  0  0  0  0  0  0  0
   -4.7681    1.7171   -0.0098 C   0  0  0  0  0  0  0  0  0  0  0  0
   -3.4344    1.7734   -0.1820 N   0  0  0  0  0  0  0  0  0  0  0  0
   -2.8531    0.9882    0.0358 H   0  0  0  0  0  0  0  0  0  0  0  0
   -3.0362    2.6401   -0.5443 H   0  0  0  0  0  0  0  0  0  0  0  0
   -5.3412    0.7125    0.4018 O   0  0  0  0  0  0  0  0  0  0  0  0
   -0.1858    2.6600   -0.0168 C   0  0  0  0  0  0  0  0  0  0  0  0
    0.6726    3.0815    0.2724 H   0  0  0  0  0  0  0  0  0  0  0  0
   -0.9139    2.9125    0.6185 H   0  0  0  0  0  0  0  0  0  0  0  0
   -0.4422    3.0199   -1.0133 H   0  0  0  0  0  0  0  0  0  0  0  0
   -0.0181    1.1673    0.0250 C   0  0  0  0  0  0  0  0  0  0  0  0
    1.0925    0.3915   -0.0000 C   0  0  0  0  0  0  0  0  0  0  0  0
    2.0358    0.7046   -0.0068 H   0  0  0  0  0  0  0  0  0  0  0  0
    0.6682   -0.9198   -0.0126 N   0  0  0  0  0  0  0  0  0  0  0  0
   -0.6501   -0.9443   -0.0123 C   0  0  0  0  0  0  0  0  0  0  0  0
   -1.2189   -1.7616   -0.0187 H   0  0  0  0  0  0  0  0  0  0  0  0
   -1.0925    0.3053    0.0000 N   0  0  0  0  0  0  0  0  0  0  0  0
   -2.0528    0.5783   -0.0084 H   0  0  0  0  0  0  0  0  0  0  0  0
  1  5  1  0
  5  6  1  0
  5  9  2  0
  1  2  1  0
  1  3  1  0
  1  4  1  0
  6  7  1  0
  6  8  1  0
 10 14  1  0
 14 15  2  0
 15 17  1  0
 17 18  2  0
 18 20  1  0
 20 14  1  0
 10 11  1  0
 10 12  1  0
 10 13  1  0
 15 16  1  0
 18 19  1  0
 20 21  1  0
M  END
>  <PDB_ID>  (250) 
pdb3uxy

>  <RESIDUE_NAME>  (250) 
GLN   HID

>  <FRAG_NAME>  (250) 
ACEM   MIMD

>  <FRAG_ATOM_NUM>  (250) 
fragi: 9  fragj: 12

>  <atom.prop.CHAIN_ID>  (250) 
A A A A A A A A A Z Z Z Z Z Z Z Z Z Z Z Z

>  <atom.prop.IS_HEAVY_ATOM>  (250) 
1 0 0 0 1 1 0 0 1 1 0 0 0 1 1 0 1 1 0 1 0

>  <DIFUSE_FUNC_ATOM>  (250) 
n/a

>  <FINAL_SINGLE_POINT_ENERGY>  (250) 
0

>  <NONCOV_INTER_ENERGY_QM>  (250) 
0

>  <FF_Energy>  (250) 
15.37

>  <QM_Energy>  (250) 
37.13

>  <source>  (250) 
ACEM_MIMD

>  <Index>  (250) 
31396

$$$$
ACEM-pdb3uxy-D-GLN-165:MIMD-pdb3uxy-D-HID-162
     RDKit          3D

 21 20  0  0  0  0  0  0  0  0999 V2000
   -5.4640    3.0986   -0.3592 C   0  0  0  0  0  0  0  0  0  0  0  0
   -6.4123    2.9550   -0.1029 H   0  0  0  0  0  0  0  0  0  0  0  0
   -5.3764    3.1846   -1.3444 H   0  0  0  0  0  0  0  0  0  0  0  0
   -5.1183    4.0246    0.1003 H   0  0  0  0  0  0  0  0  0  0  0  0
   -4.6446    1.8770    0.0990 C   0  0  0  0  0  0  0  0  0  0  0  0
   -3.3109    1.9891    0.0661 N   0  0  0  0  0  0  0  0  0  0  0  0
   -2.7252    1.2346    0.3640 H   0  0  0  0  0  0  0  0  0  0  0  0
   -2.9104    2.8638   -0.2724 H   0  0  0  0  0  0  0  0  0  0  0  0
   -5.2144    0.8511    0.4773 O   0  0  0  0  0  0  0  0  0  0  0  0
   -0.1760    2.6553    0.0156 C   0  0  0  0  0  0  0  0  0  0  0  0
    0.6752    3.0686    0.3456 H   0  0  0  0  0  0  0  0  0  0  0  0
   -0.9218    2.8986    0.6398 H   0  0  0  0  0  0  0  0  0  0  0  0
   -0.4007    3.0436   -0.9778 H   0  0  0  0  0  0  0  0  0  0  0  0
   -0.0157    1.1703    0.0299 C   0  0  0  0  0  0  0  0  0  0  0  0
    1.0909    0.3855    0.0000 C   0  0  0  0  0  0  0  0  0  0  0  0
    2.0374    0.7020   -0.0091 H   0  0  0  0  0  0  0  0  0  0  0  0
    0.6703   -0.9183   -0.0130 N   0  0  0  0  0  0  0  0  0  0  0  0
   -0.6546   -0.9394   -0.0169 C   0  0  0  0  0  0  0  0  0  0  0  0
   -1.2192   -1.7601   -0.0297 H   0  0  0  0  0  0  0  0  0  0  0  0
   -1.0909    0.3020    0.0000 N   0  0  0  0  0  0  0  0  0  0  0  0
   -2.0523    0.5823   -0.0083 H   0  0  0  0  0  0  0  0  0  0  0  0
  1  5  1  0
  5  6  1  0
  5  9  2  0
  1  2  1  0
  1  3  1  0
  1  4  1  0
  6  7  1  0
  6  8  1  0
 10 14  1  0
 14 15  2  0
 15 17  1  0
 17 18  2  0
 18 20  1  0
 20 14  1  0
 10 11  1  0
 10 12  1  0
 10 13  1  0
 15 16  1  0
 18 19  1  0
 20 21  1  0
M  END
>  <PDB_ID>  (251) 
pdb3uxy

>  <RESIDUE_NAME>  (251) 
GLN   HID

>  <FRAG_NAME>  (251) 
ACEM   MIMD

>  <FRAG_ATOM_NUM>  (251) 
fragi: 9  fragj: 12

>  <atom.prop.CHAIN_ID>  (251) 
A A A A A A A A A Z Z Z Z Z Z Z Z Z Z Z Z

>  <atom.prop.IS_HEAVY_ATOM>  (251) 
1 0 0 0 1 1 0 0 1 1 0 0 0 1 1 0 1 1 0 1 0

>  <DIFUSE_FUNC_ATOM>  (251) 
n/a

>  <FINAL_SINGLE_POINT_ENERGY>  (251) 
0

>  <NONCOV_INTER_ENERGY_QM>  (251) 
0

>  <FF_Energy>  (251) 
12.03

>  <QM_Energy>  (251) 
26.56

>  <source>  (251) 
ACEM_MIMD

>  <Index>  (251) 
31397

$$$$
ACEM-pdb3v85-A-ASN-144:MIMD-pdb3v85-A-HID-26
     RDKit          3D

 21 20  0  0  0  0  0  0  0  0999 V2000
   -4.6590   -2.1015    0.5192 C   0  0  0  0  0  0  0  0  0  0  0  0
   -5.6401   -1.9678    0.4480 H   0  0  0  0  0  0  0  0  0  0  0  0
   -4.1874   -1.2294    0.5655 H   0  0  0  0  0  0  0  0  0  0  0  0
   -4.4554   -2.6480    1.4401 H   0  0  0  0  0  0  0  0  0  0  0  0
   -4.1776   -2.8555   -0.7009 C   0  0  0  0  0  0  0  0  0  0  0  0
   -2.8686   -2.8780   -0.8925 N   0  0  0  0  0  0  0  0  0  0  0  0
   -2.2537   -2.4201   -0.2483 H   0  0  0  0  0  0  0  0  0  0  0  0
   -2.4841   -3.3567   -1.6860 H   0  0  0  0  0  0  0  0  0  0  0  0
   -4.9683   -3.4414   -1.4356 O   0  0  0  0  0  0  0  0  0  0  0  0
   -0.1804    2.6548   -0.0079 C   0  0  0  0  0  0  0  0  0  0  0  0
   -0.9393    2.8861   -0.6285 H   0  0  0  0  0  0  0  0  0  0  0  0
    0.6640    3.0626   -0.3761 H   0  0  0  0  0  0  0  0  0  0  0  0
   -0.3816    3.0829    0.9740 H   0  0  0  0  0  0  0  0  0  0  0  0
   -0.0173    1.1681    0.0007 C   0  0  0  0  0  0  0  0  0  0  0  0
    1.0912    0.3903    0.0000 C   0  0  0  0  0  0  0  0  0  0  0  0
    2.0364    0.7054   -0.0012 H   0  0  0  0  0  0  0  0  0  0  0  0
    0.6691   -0.9182    0.0031 N   0  0  0  0  0  0  0  0  0  0  0  0
   -0.6518   -0.9433   -0.0038 C   0  0  0  0  0  0  0  0  0  0  0  0
   -1.2183   -1.7620   -0.0092 H   0  0  0  0  0  0  0  0  0  0  0  0
   -1.0912    0.3031   -0.0000 N   0  0  0  0  0  0  0  0  0  0  0  0
   -2.0522    0.5791    0.0017 H   0  0  0  0  0  0  0  0  0  0  0  0
  1  5  1  0
  5  6  1  0
  5  9  2  0
  1  2  1  0
  1  3  1  0
  1  4  1  0
  6  7  1  0
  6  8  1  0
 10 14  1  0
 14 15  2  0
 15 17  1  0
 17 18  2  0
 18 20  1  0
 20 14  1  0
 10 11  1  0
 10 12  1  0
 10 13  1  0
 15 16  1  0
 18 19  1  0
 20 21  1  0
M  END
>  <PDB_ID>  (252) 
pdb3v85

>  <RESIDUE_NAME>  (252) 
ASN   HID

>  <FRAG_NAME>  (252) 
ACEM   MIMD

>  <FRAG_ATOM_NUM>  (252) 
fragi: 9  fragj: 12

>  <atom.prop.CHAIN_ID>  (252) 
A A A A A A A A A Z Z Z Z Z Z Z Z Z Z Z Z

>  <atom.prop.IS_HEAVY_ATOM>  (252) 
1 0 0 0 1 1 0 0 1 1 0 0 0 1 1 0 1 1 0 1 0

>  <DIFUSE_FUNC_ATOM>  (252) 
n/a

>  <FINAL_SINGLE_POINT_ENERGY>  (252) 
0

>  <NONCOV_INTER_ENERGY_QM>  (252) 
0

>  <FF_Energy>  (252) 
3.64

>  <QM_Energy>  (252) 
11.09

>  <source>  (252) 
ACEM_MIMD

>  <Index>  (252) 
31570

$$$$
ACEM-pdb4w8l-B-GLN-392:MIMD-pdb4w8l-B-HID-455
     RDKit          3D

 21 20  0  0  0  0  0  0  0  0999 V2000
   -5.4829   -0.2440    0.3471 C   0  0  0  0  0  0  0  0  0  0  0  0
   -6.2489   -0.4381   -0.2779 H   0  0  0  0  0  0  0  0  0  0  0  0
   -5.8184   -0.3297    1.2931 H   0  0  0  0  0  0  0  0  0  0  0  0
   -4.7075   -0.9931    0.1867 H   0  0  0  0  0  0  0  0  0  0  0  0
   -5.0405    1.2032    0.1248 C   0  0  0  0  0  0  0  0  0  0  0  0
   -3.7509    1.3632   -0.1102 N   0  0  0  0  0  0  0  0  0  0  0  0
   -3.3721    2.3027   -0.2846 H   0  0  0  0  0  0  0  0  0  0  0  0
   -3.1386    0.5564   -0.1183 H   0  0  0  0  0  0  0  0  0  0  0  0
   -5.8331    2.1646    0.1692 O   0  0  0  0  0  0  0  0  0  0  0  0
   -0.1872    2.6563   -0.0068 C   0  0  0  0  0  0  0  0  0  0  0  0
   -0.9392    2.8865   -0.6330 H   0  0  0  0  0  0  0  0  0  0  0  0
    0.6608    3.0671   -0.3591 H   0  0  0  0  0  0  0  0  0  0  0  0
   -0.4027    3.0791    0.9744 H   0  0  0  0  0  0  0  0  0  0  0  0
   -0.0203    1.1665    0.0024 C   0  0  0  0  0  0  0  0  0  0  0  0
    1.0917    0.3898   -0.0000 C   0  0  0  0  0  0  0  0  0  0  0  0
    2.0347    0.7076   -0.0005 H   0  0  0  0  0  0  0  0  0  0  0  0
    0.6713   -0.9180   -0.0007 N   0  0  0  0  0  0  0  0  0  0  0  0
   -0.6509   -0.9434   -0.0017 C   0  0  0  0  0  0  0  0  0  0  0  0
   -1.2170   -1.7610   -0.0021 H   0  0  0  0  0  0  0  0  0  0  0  0
   -1.0917    0.3050    0.0000 N   0  0  0  0  0  0  0  0  0  0  0  0
   -2.0535    0.5785   -0.0009 H   0  0  0  0  0  0  0  0  0  0  0  0
  1  5  1  0
  5  6  1  0
  5  9  2  0
  1  2  1  0
  1  3  1  0
  1  4  1  0
  6  7  1  0
  6  8  1  0
 10 14  1  0
 14 15  2  0
 15 17  1  0
 17 18  2  0
 18 20  1  0
 20 14  1  0
 10 11  1  0
 10 12  1  0
 10 13  1  0
 15 16  1  0
 18 19  1  0
 20 21  1  0
M  END
>  <PDB_ID>  (253) 
pdb4w8l

>  <RESIDUE_NAME>  (253) 
GLN   HID

>  <FRAG_NAME>  (253) 
ACEM   MIMD

>  <FRAG_ATOM_NUM>  (253) 
fragi: 9  fragj: 12

>  <atom.prop.CHAIN_ID>  (253) 
A A A A A A A A A Z Z Z Z Z Z Z Z Z Z Z Z

>  <atom.prop.IS_HEAVY_ATOM>  (253) 
1 0 0 0 1 1 0 0 1 1 0 0 0 1 1 0 1 1 0 1 0

>  <DIFUSE_FUNC_ATOM>  (253) 
n/a

>  <FINAL_SINGLE_POINT_ENERGY>  (253) 
0

>  <NONCOV_INTER_ENERGY_QM>  (253) 
0

>  <FF_Energy>  (253) 
9.62

>  <QM_Energy>  (253) 
21.38

>  <source>  (253) 
ACEM_MIMD

>  <Index>  (253) 
31603

$$$$
ACEM-pdb4w8l-C-GLN-392:MIMD-pdb4w8l-C-HID-455
     RDKit          3D

 21 20  0  0  0  0  0  0  0  0999 V2000
   -5.4963   -0.1150    0.7908 C   0  0  0  0  0  0  0  0  0  0  0  0
   -6.3140   -0.2683    0.2348 H   0  0  0  0  0  0  0  0  0  0  0  0
   -5.7320   -0.2090    1.7595 H   0  0  0  0  0  0  0  0  0  0  0  0
   -4.7557   -0.8737    0.5379 H   0  0  0  0  0  0  0  0  0  0  0  0
   -5.0085    1.3102    0.5488 C   0  0  0  0  0  0  0  0  0  0  0  0
   -3.7597    1.4351    0.1202 N   0  0  0  0  0  0  0  0  0  0  0  0
   -3.3675    2.3533   -0.0762 H   0  0  0  0  0  0  0  0  0  0  0  0
   -3.1950    0.5980   -0.0083 H   0  0  0  0  0  0  0  0  0  0  0  0
   -5.7443    2.2840    0.7341 O   0  0  0  0  0  0  0  0  0  0  0  0
   -0.1799    2.6539   -0.0292 C   0  0  0  0  0  0  0  0  0  0  0  0
   -0.9882    2.8778   -0.5866 H   0  0  0  0  0  0  0  0  0  0  0  0
    0.6308    3.0551   -0.4706 H   0  0  0  0  0  0  0  0  0  0  0  0
   -0.2986    3.0977    0.9592 H   0  0  0  0  0  0  0  0  0  0  0  0
   -0.0176    1.1672   -0.0098 C   0  0  0  0  0  0  0  0  0  0  0  0
    1.0917    0.3890    0.0000 C   0  0  0  0  0  0  0  0  0  0  0  0
    2.0360    0.7041    0.0051 H   0  0  0  0  0  0  0  0  0  0  0  0
    0.6697   -0.9185    0.0035 N   0  0  0  0  0  0  0  0  0  0  0  0
   -0.6521   -0.9425    0.0063 C   0  0  0  0  0  0  0  0  0  0  0  0
   -1.2190   -1.7605    0.0135 H   0  0  0  0  0  0  0  0  0  0  0  0
   -1.0917    0.3048   -0.0000 N   0  0  0  0  0  0  0  0  0  0  0  0
   -2.0527    0.5803    0.0014 H   0  0  0  0  0  0  0  0  0  0  0  0
  1  5  1  0
  5  6  1  0
  5  9  2  0
  1  2  1  0
  1  3  1  0
  1  4  1  0
  6  7  1  0
  6  8  1  0
 10 14  1  0
 14 15  2  0
 15 17  1  0
 17 18  2  0
 18 20  1  0
 20 14  1  0
 10 11  1  0
 10 12  1  0
 10 13  1  0
 15 16  1  0
 18 19  1  0
 20 21  1  0
M  END
>  <PDB_ID>  (254) 
pdb4w8l

>  <RESIDUE_NAME>  (254) 
GLN   HID

>  <FRAG_NAME>  (254) 
ACEM   MIMD

>  <FRAG_ATOM_NUM>  (254) 
fragi: 9  fragj: 12

>  <atom.prop.CHAIN_ID>  (254) 
A A A A A A A A A Z Z Z Z Z Z Z Z Z Z Z Z

>  <atom.prop.IS_HEAVY_ATOM>  (254) 
1 0 0 0 1 1 0 0 1 1 0 0 0 1 1 0 1 1 0 1 0

>  <DIFUSE_FUNC_ATOM>  (254) 
n/a

>  <FINAL_SINGLE_POINT_ENERGY>  (254) 
0

>  <NONCOV_INTER_ENERGY_QM>  (254) 
0

>  <FF_Energy>  (254) 
8.6

>  <QM_Energy>  (254) 
18.32

>  <source>  (254) 
ACEM_MIMD

>  <Index>  (254) 
31605

$$$$
ACEM-pdb3vyj-A-GLN-230:MIMD-pdb3vyj-A-HID-142
     RDKit          3D

 21 20  0  0  0  0  0  0  0  0999 V2000
   -1.0381   -2.1731    3.1823 C   0  0  0  0  0  0  0  0  0  0  0  0
   -1.4456   -1.3465    2.7777 H   0  0  0  0  0  0  0  0  0  0  0  0
   -0.0757   -2.2286    2.8933 H   0  0  0  0  0  0  0  0  0  0  0  0
   -1.0734   -2.0858    4.2683 H   0  0  0  0  0  0  0  0  0  0  0  0
   -1.7721   -3.3843    2.6329 C   0  0  0  0  0  0  0  0  0  0  0  0
   -1.6838   -3.5585    1.3467 N   0  0  0  0  0  0  0  0  0  0  0  0
   -2.1409   -4.3658    0.8876 H   0  0  0  0  0  0  0  0  0  0  0  0
   -1.1601   -2.8962    0.7761 H   0  0  0  0  0  0  0  0  0  0  0  0
   -2.3916   -4.1560    3.3547 O   0  0  0  0  0  0  0  0  0  0  0  0
   -0.2052    2.6760   -0.0094 C   0  0  0  0  0  0  0  0  0  0  0  0
   -0.9935    2.9035   -0.5858 H   0  0  0  0  0  0  0  0  0  0  0  0
    0.6209    3.0787   -0.4122 H   0  0  0  0  0  0  0  0  0  0  0  0
   -0.3571    3.0939    0.9858 H   0  0  0  0  0  0  0  0  0  0  0  0
   -0.0421    1.1748   -0.0108 C   0  0  0  0  0  0  0  0  0  0  0  0
    1.1043    0.3775    0.0000 C   0  0  0  0  0  0  0  0  0  0  0  0
    2.0346    0.7244    0.0013 H   0  0  0  0  0  0  0  0  0  0  0  0
    0.6979   -0.9185    0.0091 N   0  0  0  0  0  0  0  0  0  0  0  0
   -0.6559   -0.9544    0.0017 C   0  0  0  0  0  0  0  0  0  0  0  0
   -1.2094   -1.7632   -0.0009 H   0  0  0  0  0  0  0  0  0  0  0  0
   -1.1043    0.3205   -0.0000 N   0  0  0  0  0  0  0  0  0  0  0  0
   -2.0684    0.5744    0.0052 H   0  0  0  0  0  0  0  0  0  0  0  0
  1  5  1  0
  5  6  1  0
  5  9  2  0
  1  2  1  0
  1  3  1  0
  1  4  1  0
  6  7  1  0
  6  8  1  0
 10 14  1  0
 14 15  2  0
 15 17  1  0
 17 18  2  0
 18 20  1  0
 20 14  1  0
 10 11  1  0
 10 12  1  0
 10 13  1  0
 15 16  1  0
 18 19  1  0
 20 21  1  0
M  END
>  <PDB_ID>  (255) 
pdb3vyj

>  <RESIDUE_NAME>  (255) 
GLN   HID

>  <FRAG_NAME>  (255) 
ACEM   MIMD

>  <FRAG_ATOM_NUM>  (255) 
fragi: 9  fragj: 12

>  <atom.prop.CHAIN_ID>  (255) 
A A A A A A A A A Z Z Z Z Z Z Z Z Z Z Z Z

>  <atom.prop.IS_HEAVY_ATOM>  (255) 
1 0 0 0 1 1 0 0 1 1 0 0 0 1 1 0 1 1 0 1 0

>  <DIFUSE_FUNC_ATOM>  (255) 
n/a

>  <FINAL_SINGLE_POINT_ENERGY>  (255) 
0

>  <NONCOV_INTER_ENERGY_QM>  (255) 
0

>  <FF_Energy>  (255) 
-0.51

>  <QM_Energy>  (255) 
5.2

>  <source>  (255) 
ACEM_MIMD

>  <Index>  (255) 
32134

$$$$
ACEM-pdb3w24-A-GLN-57:MIMD-pdb3w24-A-HID-120
     RDKit          3D

 21 20  0  0  0  0  0  0  0  0999 V2000
   -5.5525    0.0035   -0.1821 C   0  0  0  0  0  0  0  0  0  0  0  0
   -6.2716   -0.0588   -0.8939 H   0  0  0  0  0  0  0  0  0  0  0  0
   -5.9884   -0.2054    0.7085 H   0  0  0  0  0  0  0  0  0  0  0  0
   -4.8095   -0.7680   -0.3841 H   0  0  0  0  0  0  0  0  0  0  0  0
   -5.0487    1.4531   -0.1391 C   0  0  0  0  0  0  0  0  0  0  0  0
   -3.8244    1.5494   -0.2921 N   0  0  0  0  0  0  0  0  0  0  0  0
   -3.3533    2.5168   -0.2944 H   0  0  0  0  0  0  0  0  0  0  0  0
   -3.2119    0.7442   -0.4187 H   0  0  0  0  0  0  0  0  0  0  0  0
   -5.7826    2.4049    0.0299 O   0  0  0  0  0  0  0  0  0  0  0  0
   -0.1402    2.6429    0.1186 C   0  0  0  0  0  0  0  0  0  0  0  0
   -0.8634    2.9506   -0.5029 H   0  0  0  0  0  0  0  0  0  0  0  0
    0.7274    3.0627   -0.1558 H   0  0  0  0  0  0  0  0  0  0  0  0
   -0.3830    2.9953    1.1211 H   0  0  0  0  0  0  0  0  0  0  0  0
   -0.0135    1.1555    0.0195 C   0  0  0  0  0  0  0  0  0  0  0  0
    1.1055    0.3897    0.0000 C   0  0  0  0  0  0  0  0  0  0  0  0
    2.0428    0.6961   -0.0078 H   0  0  0  0  0  0  0  0  0  0  0  0
    0.6704   -0.9326   -0.0052 N   0  0  0  0  0  0  0  0  0  0  0  0
   -0.6570   -0.9341   -0.0143 C   0  0  0  0  0  0  0  0  0  0  0  0
   -1.2335   -1.7502   -0.0283 H   0  0  0  0  0  0  0  0  0  0  0  0
   -1.1055    0.3215   -0.0000 N   0  0  0  0  0  0  0  0  0  0  0  0
   -2.0540    0.5973   -0.0037 H   0  0  0  0  0  0  0  0  0  0  0  0
  1  5  1  0
  5  6  1  0
  5  9  2  0
  1  2  1  0
  1  3  1  0
  1  4  1  0
  6  7  1  0
  6  8  1  0
 10 14  1  0
 14 15  2  0
 15 17  1  0
 17 18  2  0
 18 20  1  0
 20 14  1  0
 10 11  1  0
 10 12  1  0
 10 13  1  0
 15 16  1  0
 18 19  1  0
 20 21  1  0
M  END
>  <PDB_ID>  (256) 
pdb3w24

>  <RESIDUE_NAME>  (256) 
GLN   HID

>  <FRAG_NAME>  (256) 
ACEM   MIMD

>  <FRAG_ATOM_NUM>  (256) 
fragi: 9  fragj: 12

>  <atom.prop.CHAIN_ID>  (256) 
A A A A A A A A A Z Z Z Z Z Z Z Z Z Z Z Z

>  <atom.prop.IS_HEAVY_ATOM>  (256) 
1 0 0 0 1 1 0 0 1 1 0 0 0 1 1 0 1 1 0 1 0

>  <DIFUSE_FUNC_ATOM>  (256) 
n/a

>  <FINAL_SINGLE_POINT_ENERGY>  (256) 
0

>  <NONCOV_INTER_ENERGY_QM>  (256) 
0

>  <FF_Energy>  (256) 
6.6

>  <QM_Energy>  (256) 
13.29

>  <source>  (256) 
ACEM_MIMD

>  <Index>  (256) 
32189

$$$$
ACEM-pdb4xc2-A-ASN-81:MIMD-pdb4xc2-A-HID-98
     RDKit          3D

 21 20  0  0  0  0  0  0  0  0999 V2000
   -3.9092    0.1621    2.5108 C   0  0  0  0  0  0  0  0  0  0  0  0
   -3.0079   -0.1517    2.2233 H   0  0  0  0  0  0  0  0  0  0  0  0
   -4.6120   -0.4501    2.1574 H   0  0  0  0  0  0  0  0  0  0  0  0
   -3.9490    0.1354    3.5998 H   0  0  0  0  0  0  0  0  0  0  0  0
   -4.1435    1.5413    1.9657 C   0  0  0  0  0  0  0  0  0  0  0  0
   -3.4115    1.8953    0.9192 N   0  0  0  0  0  0  0  0  0  0  0  0
   -2.7490    1.2532    0.5300 H   0  0  0  0  0  0  0  0  0  0  0  0
   -3.5183    2.8045    0.5143 H   0  0  0  0  0  0  0  0  0  0  0  0
   -4.9657    2.2936    2.4902 O   0  0  0  0  0  0  0  0  0  0  0  0
   -0.1757    2.6643   -0.0937 C   0  0  0  0  0  0  0  0  0  0  0  0
    0.7379    3.0805   -0.0291 H   0  0  0  0  0  0  0  0  0  0  0  0
   -0.7153    2.9528    0.7045 H   0  0  0  0  0  0  0  0  0  0  0  0
   -0.6645    3.0296   -0.9969 H   0  0  0  0  0  0  0  0  0  0  0  0
   -0.0191    1.1705   -0.0418 C   0  0  0  0  0  0  0  0  0  0  0  0
    1.0895    0.3906    0.0000 C   0  0  0  0  0  0  0  0  0  0  0  0
    2.0343    0.7054    0.0174 H   0  0  0  0  0  0  0  0  0  0  0  0
    0.6692   -0.9219    0.0162 N   0  0  0  0  0  0  0  0  0  0  0  0
   -0.6501   -0.9446    0.0256 C   0  0  0  0  0  0  0  0  0  0  0  0
   -1.2197   -1.7600    0.0493 H   0  0  0  0  0  0  0  0  0  0  0  0
   -1.0895    0.3054    0.0000 N   0  0  0  0  0  0  0  0  0  0  0  0
   -2.0518    0.5785    0.0089 H   0  0  0  0  0  0  0  0  0  0  0  0
  1  5  1  0
  5  6  1  0
  5  9  2  0
  1  2  1  0
  1  3  1  0
  1  4  1  0
  6  7  1  0
  6  8  1  0
 10 14  1  0
 14 15  2  0
 15 17  1  0
 17 18  2  0
 18 20  1  0
 20 14  1  0
 10 11  1  0
 10 12  1  0
 10 13  1  0
 15 16  1  0
 18 19  1  0
 20 21  1  0
M  END
>  <PDB_ID>  (257) 
pdb4xc2

>  <RESIDUE_NAME>  (257) 
ASN   HID

>  <FRAG_NAME>  (257) 
ACEM   MIMD

>  <FRAG_ATOM_NUM>  (257) 
fragi: 9  fragj: 12

>  <atom.prop.CHAIN_ID>  (257) 
A A A A A A A A A Z Z Z Z Z Z Z Z Z Z Z Z

>  <atom.prop.IS_HEAVY_ATOM>  (257) 
1 0 0 0 1 1 0 0 1 1 0 0 0 1 1 0 1 1 0 1 0

>  <DIFUSE_FUNC_ATOM>  (257) 
n/a

>  <FINAL_SINGLE_POINT_ENERGY>  (257) 
0

>  <NONCOV_INTER_ENERGY_QM>  (257) 
0

>  <FF_Energy>  (257) 
8.96

>  <QM_Energy>  (257) 
18.77

>  <source>  (257) 
ACEM_MIMD

>  <Index>  (257) 
32260

$$$$
ACEM-pdb3w6s-A-GLN-147:MIMD-pdb3w6s-A-HID-144
     RDKit          3D

 21 20  0  0  0  0  0  0  0  0999 V2000
   -4.8580    3.8995    0.0657 C   0  0  0  0  0  0  0  0  0  0  0  0
   -5.8354    3.8299   -0.1321 H   0  0  0  0  0  0  0  0  0  0  0  0
   -4.4122    4.4497   -0.6397 H   0  0  0  0  0  0  0  0  0  0  0  0
   -4.7242    4.3851    1.0323 H   0  0  0  0  0  0  0  0  0  0  0  0
   -4.2643    2.5161    0.0451 C   0  0  0  0  0  0  0  0  0  0  0  0
   -3.0922    2.3843   -0.5600 N   0  0  0  0  0  0  0  0  0  0  0  0
   -2.6201    1.4814   -0.6032 H   0  0  0  0  0  0  0  0  0  0  0  0
   -2.6629    3.2045   -0.9872 H   0  0  0  0  0  0  0  0  0  0  0  0
   -4.8588    1.5690    0.5494 O   0  0  0  0  0  0  0  0  0  0  0  0
   -0.1826    2.6472   -0.0022 C   0  0  0  0  0  0  0  0  0  0  0  0
    0.6884    3.0673    0.2695 H   0  0  0  0  0  0  0  0  0  0  0  0
   -0.8847    2.8975    0.6715 H   0  0  0  0  0  0  0  0  0  0  0  0
   -0.4744    3.0322   -0.9793 H   0  0  0  0  0  0  0  0  0  0  0  0
   -0.0188    1.1674    0.0143 C   0  0  0  0  0  0  0  0  0  0  0  0
    1.0902    0.3887    0.0000 C   0  0  0  0  0  0  0  0  0  0  0  0
    2.0350    0.7058   -0.0032 H   0  0  0  0  0  0  0  0  0  0  0  0
    0.6702   -0.9162   -0.0078 N   0  0  0  0  0  0  0  0  0  0  0  0
   -0.6514   -0.9418   -0.0065 C   0  0  0  0  0  0  0  0  0  0  0  0
   -1.2169   -1.7613   -0.0090 H   0  0  0  0  0  0  0  0  0  0  0  0
   -1.0902    0.3018   -0.0000 N   0  0  0  0  0  0  0  0  0  0  0  0
   -2.0530    0.5781   -0.0057 H   0  0  0  0  0  0  0  0  0  0  0  0
  1  5  1  0
  5  6  1  0
  5  9  2  0
  1  2  1  0
  1  3  1  0
  1  4  1  0
  6  7  1  0
  6  8  1  0
 10 14  1  0
 14 15  2  0
 15 17  1  0
 17 18  2  0
 18 20  1  0
 20 14  1  0
 10 11  1  0
 10 12  1  0
 10 13  1  0
 15 16  1  0
 18 19  1  0
 20 21  1  0
M  END
>  <PDB_ID>  (258) 
pdb3w6s

>  <RESIDUE_NAME>  (258) 
GLN   HID

>  <FRAG_NAME>  (258) 
ACEM   MIMD

>  <FRAG_ATOM_NUM>  (258) 
fragi: 9  fragj: 12

>  <atom.prop.CHAIN_ID>  (258) 
A A A A A A A A A Z Z Z Z Z Z Z Z Z Z Z Z

>  <atom.prop.IS_HEAVY_ATOM>  (258) 
1 0 0 0 1 1 0 0 1 1 0 0 0 1 1 0 1 1 0 1 0

>  <DIFUSE_FUNC_ATOM>  (258) 
n/a

>  <FINAL_SINGLE_POINT_ENERGY>  (258) 
0

>  <NONCOV_INTER_ENERGY_QM>  (258) 
0

>  <FF_Energy>  (258) 
7.48

>  <QM_Energy>  (258) 
13.64

>  <source>  (258) 
ACEM_MIMD

>  <Index>  (258) 
32324

$$$$
ACEM-pdb3wbi-A-GLN-110:MIMD-pdb3wbi-A-HID-13
     RDKit          3D

 21 20  0  0  0  0  0  0  0  0999 V2000
   -4.6801    2.9803   -2.2485 C   0  0  0  0  0  0  0  0  0  0  0  0
   -4.6084    3.9488   -1.9824 H   0  0  0  0  0  0  0  0  0  0  0  0
   -5.6540    2.7552   -2.3683 H   0  0  0  0  0  0  0  0  0  0  0  0
   -4.1796    2.8516   -3.2081 H   0  0  0  0  0  0  0  0  0  0  0  0
   -4.1220    2.1280   -1.1183 C   0  0  0  0  0  0  0  0  0  0  0  0
   -3.4851    1.0060   -1.4877 N   0  0  0  0  0  0  0  0  0  0  0  0
   -3.0753    0.3964   -0.7896 H   0  0  0  0  0  0  0  0  0  0  0  0
   -3.4242    0.7852   -2.4754 H   0  0  0  0  0  0  0  0  0  0  0  0
   -4.2413    2.4764    0.0665 O   0  0  0  0  0  0  0  0  0  0  0  0
   -0.1755    2.6615    0.0074 C   0  0  0  0  0  0  0  0  0  0  0  0
   -0.9325    2.8966   -0.6092 H   0  0  0  0  0  0  0  0  0  0  0  0
    0.6707    3.0656   -0.3503 H   0  0  0  0  0  0  0  0  0  0  0  0
   -0.3779    3.0774    0.9944 H   0  0  0  0  0  0  0  0  0  0  0  0
   -0.0185    1.1693    0.0121 C   0  0  0  0  0  0  0  0  0  0  0  0
    1.1014    0.3939   -0.0000 C   0  0  0  0  0  0  0  0  0  0  0  0
    2.0404    0.7118   -0.0041 H   0  0  0  0  0  0  0  0  0  0  0  0
    0.6769   -0.9168   -0.0041 N   0  0  0  0  0  0  0  0  0  0  0  0
   -0.6584   -0.9458   -0.0080 C   0  0  0  0  0  0  0  0  0  0  0  0
   -1.2157   -1.7670   -0.0149 H   0  0  0  0  0  0  0  0  0  0  0  0
   -1.1014    0.2995    0.0000 N   0  0  0  0  0  0  0  0  0  0  0  0
   -2.0580    0.5786   -0.0013 H   0  0  0  0  0  0  0  0  0  0  0  0
  1  5  1  0
  5  6  1  0
  5  9  2  0
  1  2  1  0
  1  3  1  0
  1  4  1  0
  6  7  1  0
  6  8  1  0
 10 14  1  0
 14 15  2  0
 15 17  1  0
 17 18  2  0
 18 20  1  0
 20 14  1  0
 10 11  1  0
 10 12  1  0
 10 13  1  0
 15 16  1  0
 18 19  1  0
 20 21  1  0
M  END
>  <PDB_ID>  (259) 
pdb3wbi

>  <RESIDUE_NAME>  (259) 
GLN   HID

>  <FRAG_NAME>  (259) 
ACEM   MIMD

>  <FRAG_ATOM_NUM>  (259) 
fragi: 9  fragj: 12

>  <atom.prop.CHAIN_ID>  (259) 
A A A A A A A A A Z Z Z Z Z Z Z Z Z Z Z Z

>  <atom.prop.IS_HEAVY_ATOM>  (259) 
1 0 0 0 1 1 0 0 1 1 0 0 0 1 1 0 1 1 0 1 0

>  <DIFUSE_FUNC_ATOM>  (259) 
n/a

>  <FINAL_SINGLE_POINT_ENERGY>  (259) 
0

>  <NONCOV_INTER_ENERGY_QM>  (259) 
0

>  <FF_Energy>  (259) 
3.67

>  <QM_Energy>  (259) 
9.96

>  <source>  (259) 
ACEM_MIMD

>  <Index>  (259) 
32368

$$$$
ACEM-pdb3wr5-A-GLN-314:MIMD-pdb3wr5-A-HID-333
     RDKit          3D

 21 20  0  0  0  0  0  0  0  0999 V2000
   -5.1858    2.7785    1.9871 C   0  0  0  0  0  0  0  0  0  0  0  0
   -4.9535    3.5935    2.5314 H   0  0  0  0  0  0  0  0  0  0  0  0
   -5.7789    2.1838    2.5427 H   0  0  0  0  0  0  0  0  0  0  0  0
   -5.7448    3.0987    1.1078 H   0  0  0  0  0  0  0  0  0  0  0  0
   -3.9012    2.0249    1.6793 C   0  0  0  0  0  0  0  0  0  0  0  0
   -3.7625    1.5267    0.4528 N   0  0  0  0  0  0  0  0  0  0  0  0
   -2.9303    1.0293    0.1798 H   0  0  0  0  0  0  0  0  0  0  0  0
   -4.5262    1.6601   -0.2148 H   0  0  0  0  0  0  0  0  0  0  0  0
   -3.0573    1.8677    2.5572 O   0  0  0  0  0  0  0  0  0  0  0  0
   -0.1830    2.6600   -0.0358 C   0  0  0  0  0  0  0  0  0  0  0  0
   -0.6487    2.9445    0.8121 H   0  0  0  0  0  0  0  0  0  0  0  0
   -0.7761    2.8962   -0.8158 H   0  0  0  0  0  0  0  0  0  0  0  0
    0.7491    3.2177   -0.1262 H   0  0  0  0  0  0  0  0  0  0  0  0
   -0.0167    1.1682   -0.0047 C   0  0  0  0  0  0  0  0  0  0  0  0
    1.0904    0.3893   -0.0000 C   0  0  0  0  0  0  0  0  0  0  0  0
    2.0363    0.7056    0.0008 H   0  0  0  0  0  0  0  0  0  0  0  0
    0.6695   -0.9153    0.0057 N   0  0  0  0  0  0  0  0  0  0  0  0
   -0.6528   -0.9416   -0.0011 C   0  0  0  0  0  0  0  0  0  0  0  0
   -1.2167   -1.7625   -0.0045 H   0  0  0  0  0  0  0  0  0  0  0  0
   -1.0904    0.2994   -0.0000 N   0  0  0  0  0  0  0  0  0  0  0  0
   -2.0527    0.5784    0.0027 H   0  0  0  0  0  0  0  0  0  0  0  0
  1  5  1  0
  5  6  1  0
  5  9  2  0
  1  2  1  0
  1  3  1  0
  1  4  1  0
  6  7  1  0
  6  8  1  0
 10 14  1  0
 14 15  2  0
 15 17  1  0
 17 18  2  0
 18 20  1  0
 20 14  1  0
 10 11  1  0
 10 12  1  0
 10 13  1  0
 15 16  1  0
 18 19  1  0
 20 21  1  0
M  END
>  <PDB_ID>  (260) 
pdb3wr5

>  <RESIDUE_NAME>  (260) 
GLN   HID

>  <FRAG_NAME>  (260) 
ACEM   MIMD

>  <FRAG_ATOM_NUM>  (260) 
fragi: 9  fragj: 12

>  <atom.prop.CHAIN_ID>  (260) 
A A A A A A A A A Z Z Z Z Z Z Z Z Z Z Z Z

>  <atom.prop.IS_HEAVY_ATOM>  (260) 
1 0 0 0 1 1 0 0 1 1 0 0 0 1 1 0 1 1 0 1 0

>  <DIFUSE_FUNC_ATOM>  (260) 
n/a

>  <FINAL_SINGLE_POINT_ENERGY>  (260) 
0

>  <NONCOV_INTER_ENERGY_QM>  (260) 
0

>  <FF_Energy>  (260) 
10.07

>  <QM_Energy>  (260) 
24.84

>  <source>  (260) 
ACEM_MIMD

>  <Index>  (260) 
32710

$$$$
ACEM-pdb3wr5-B-GLN-314:MIMD-pdb3wr5-B-HID-333
     RDKit          3D

 21 20  0  0  0  0  0  0  0  0999 V2000
   -5.0901    2.7432    2.2831 C   0  0  0  0  0  0  0  0  0  0  0  0
   -4.8430    3.4946    2.9067 H   0  0  0  0  0  0  0  0  0  0  0  0
   -5.7073    2.1150    2.7721 H   0  0  0  0  0  0  0  0  0  0  0  0
   -5.6232    3.1607    1.4289 H   0  0  0  0  0  0  0  0  0  0  0  0
   -3.8170    1.9805    1.9282 C   0  0  0  0  0  0  0  0  0  0  0  0
   -3.6619    1.5713    0.6523 N   0  0  0  0  0  0  0  0  0  0  0  0
   -2.8453    1.0829    0.3625 H   0  0  0  0  0  0  0  0  0  0  0  0
   -4.4148    1.7821   -0.0063 H   0  0  0  0  0  0  0  0  0  0  0  0
   -3.0054    1.7254    2.8072 O   0  0  0  0  0  0  0  0  0  0  0  0
   -0.1766    2.6567   -0.0516 C   0  0  0  0  0  0  0  0  0  0  0  0
   -0.6271    2.9572    0.7967 H   0  0  0  0  0  0  0  0  0  0  0  0
   -0.7698    2.8960   -0.8286 H   0  0  0  0  0  0  0  0  0  0  0  0
    0.7589    3.2066   -0.1550 H   0  0  0  0  0  0  0  0  0  0  0  0
   -0.0186    1.1690   -0.0095 C   0  0  0  0  0  0  0  0  0  0  0  0
    1.0927    0.3903   -0.0000 C   0  0  0  0  0  0  0  0  0  0  0  0
    2.0368    0.7078    0.0013 H   0  0  0  0  0  0  0  0  0  0  0  0
    0.6712   -0.9158    0.0089 N   0  0  0  0  0  0  0  0  0  0  0  0
   -0.6526   -0.9450    0.0006 C   0  0  0  0  0  0  0  0  0  0  0  0
   -1.2158   -1.7637   -0.0034 H   0  0  0  0  0  0  0  0  0  0  0  0
   -1.0927    0.3015   -0.0000 N   0  0  0  0  0  0  0  0  0  0  0  0
   -2.0540    0.5772    0.0049 H   0  0  0  0  0  0  0  0  0  0  0  0
  1  5  1  0
  5  6  1  0
  5  9  2  0
  1  2  1  0
  1  3  1  0
  1  4  1  0
  6  7  1  0
  6  8  1  0
 10 14  1  0
 14 15  2  0
 15 17  1  0
 17 18  2  0
 18 20  1  0
 20 14  1  0
 10 11  1  0
 10 12  1  0
 10 13  1  0
 15 16  1  0
 18 19  1  0
 20 21  1  0
M  END
>  <PDB_ID>  (261) 
pdb3wr5

>  <RESIDUE_NAME>  (261) 
GLN   HID

>  <FRAG_NAME>  (261) 
ACEM   MIMD

>  <FRAG_ATOM_NUM>  (261) 
fragi: 9  fragj: 12

>  <atom.prop.CHAIN_ID>  (261) 
A A A A A A A A A Z Z Z Z Z Z Z Z Z Z Z Z

>  <atom.prop.IS_HEAVY_ATOM>  (261) 
1 0 0 0 1 1 0 0 1 1 0 0 0 1 1 0 1 1 0 1 0

>  <DIFUSE_FUNC_ATOM>  (261) 
n/a

>  <FINAL_SINGLE_POINT_ENERGY>  (261) 
0

>  <NONCOV_INTER_ENERGY_QM>  (261) 
0

>  <FF_Energy>  (261) 
10.46

>  <QM_Energy>  (261) 
25.29

>  <source>  (261) 
ACEM_MIMD

>  <Index>  (261) 
32711

$$$$
ACEM-pdb3wy1-A-GLN-15:MIMD-pdb3wy1-A-HID-332
     RDKit          3D

 21 20  0  0  0  0  0  0  0  0999 V2000
   -4.7355    1.3789    3.5921 C   0  0  0  0  0  0  0  0  0  0  0  0
   -4.2178    2.0331    4.1512 H   0  0  0  0  0  0  0  0  0  0  0  0
   -4.6800    0.4718    4.0213 H   0  0  0  0  0  0  0  0  0  0  0  0
   -5.7806    1.6883    3.5976 H   0  0  0  0  0  0  0  0  0  0  0  0
   -4.1034    1.3077    2.2105 C   0  0  0  0  0  0  0  0  0  0  0  0
   -2.7889    1.0661    2.1792 N   0  0  0  0  0  0  0  0  0  0  0  0
   -2.3005    0.9908    1.2921 H   0  0  0  0  0  0  0  0  0  0  0  0
   -2.2911    0.9606    3.0578 H   0  0  0  0  0  0  0  0  0  0  0  0
   -4.7735    1.4576    1.1857 O   0  0  0  0  0  0  0  0  0  0  0  0
   -0.1682    2.6524   -0.0089 C   0  0  0  0  0  0  0  0  0  0  0  0
    0.7388    3.0699    0.1021 H   0  0  0  0  0  0  0  0  0  0  0  0
   -0.7414    2.9129    0.7743 H   0  0  0  0  0  0  0  0  0  0  0  0
   -0.6252    3.0216   -0.9270 H   0  0  0  0  0  0  0  0  0  0  0  0
   -0.0036    1.1657    0.0071 C   0  0  0  0  0  0  0  0  0  0  0  0
    1.0926    0.3849   -0.0000 C   0  0  0  0  0  0  0  0  0  0  0  0
    2.0428    0.6862   -0.0017 H   0  0  0  0  0  0  0  0  0  0  0  0
    0.6601   -0.9258   -0.0026 N   0  0  0  0  0  0  0  0  0  0  0  0
   -0.6565   -0.9350   -0.0045 C   0  0  0  0  0  0  0  0  0  0  0  0
   -1.2329   -1.7525   -0.0081 H   0  0  0  0  0  0  0  0  0  0  0  0
   -1.0926    0.3102    0.0000 N   0  0  0  0  0  0  0  0  0  0  0  0
   -2.0464    0.5959   -0.0025 H   0  0  0  0  0  0  0  0  0  0  0  0
  1  5  1  0
  5  6  1  0
  5  9  2  0
  1  2  1  0
  1  3  1  0
  1  4  1  0
  6  7  1  0
  6  8  1  0
 10 14  1  0
 14 15  2  0
 15 17  1  0
 17 18  2  0
 18 20  1  0
 20 14  1  0
 10 11  1  0
 10 12  1  0
 10 13  1  0
 15 16  1  0
 18 19  1  0
 20 21  1  0
M  END
>  <PDB_ID>  (262) 
pdb3wy1

>  <RESIDUE_NAME>  (262) 
GLN   HID

>  <FRAG_NAME>  (262) 
ACEM   MIMD

>  <FRAG_ATOM_NUM>  (262) 
fragi: 9  fragj: 12

>  <atom.prop.CHAIN_ID>  (262) 
A A A A A A A A A Z Z Z Z Z Z Z Z Z Z Z Z

>  <atom.prop.IS_HEAVY_ATOM>  (262) 
1 0 0 0 1 1 0 0 1 1 0 0 0 1 1 0 1 1 0 1 0

>  <DIFUSE_FUNC_ATOM>  (262) 
n/a

>  <FINAL_SINGLE_POINT_ENERGY>  (262) 
0

>  <NONCOV_INTER_ENERGY_QM>  (262) 
0

>  <FF_Energy>  (262) 
2.07

>  <QM_Energy>  (262) 
7.1

>  <source>  (262) 
ACEM_MIMD

>  <Index>  (262) 
32875

$$$$
ACEM-pdb4yki-A-ASN-95:MIMD-pdb4yki-A-HID-145
     RDKit          3D

 21 20  0  0  0  0  0  0  0  0999 V2000
   -4.4012   -1.1580    0.4036 C   0  0  0  0  0  0  0  0  0  0  0  0
   -4.6329   -1.5215    1.2722 H   0  0  0  0  0  0  0  0  0  0  0  0
   -3.4376   -1.1518    0.2958 H   0  0  0  0  0  0  0  0  0  0  0  0
   -4.8361   -1.7919   -0.3691 H   0  0  0  0  0  0  0  0  0  0  0  0
   -4.8823    0.2877    0.3614 C   0  0  0  0  0  0  0  0  0  0  0  0
   -3.9471    1.2279    0.3310 N   0  0  0  0  0  0  0  0  0  0  0  0
   -4.1716    2.0581    0.3071 H   0  0  0  0  0  0  0  0  0  0  0  0
   -3.1148    1.0083    0.3361 H   0  0  0  0  0  0  0  0  0  0  0  0
   -6.0706    0.5486    0.4622 O   0  0  0  0  0  0  0  0  0  0  0  0
   -0.1061    2.6423   -0.0393 C   0  0  0  0  0  0  0  0  0  0  0  0
   -0.8158    2.8636   -0.6629 H   0  0  0  0  0  0  0  0  0  0  0  0
    0.7381    2.9818   -0.3737 H   0  0  0  0  0  0  0  0  0  0  0  0
   -0.3202    3.1237    0.9148 H   0  0  0  0  0  0  0  0  0  0  0  0
   -0.0042    1.1595    0.0144 C   0  0  0  0  0  0  0  0  0  0  0  0
    1.0946    0.3732    0.0000 C   0  0  0  0  0  0  0  0  0  0  0  0
    1.9792    0.6605   -0.0078 H   0  0  0  0  0  0  0  0  0  0  0  0
    0.6627   -0.9224   -0.0138 N   0  0  0  0  0  0  0  0  0  0  0  0
   -0.6586   -0.9291   -0.0006 C   0  0  0  0  0  0  0  0  0  0  0  0
   -1.1945   -1.6884    0.0053 H   0  0  0  0  0  0  0  0  0  0  0  0
   -1.0946    0.3189    0.0000 N   0  0  0  0  0  0  0  0  0  0  0  0
   -2.0461    0.6040   -0.0093 H   0  0  0  0  0  0  0  0  0  0  0  0
  1  5  1  0
  5  6  1  0
  5  9  2  0
  1  2  1  0
  1  3  1  0
  1  4  1  0
  6  7  1  0
  6  8  1  0
 10 14  1  0
 14 15  2  0
 15 17  1  0
 17 18  2  0
 18 20  1  0
 20 14  1  0
 10 11  1  0
 10 12  1  0
 10 13  1  0
 15 16  1  0
 18 19  1  0
 20 21  1  0
M  END
>  <PDB_ID>  (263) 
pdb4yki

>  <RESIDUE_NAME>  (263) 
ASN   HID

>  <FRAG_NAME>  (263) 
ACEM   MIMD

>  <FRAG_ATOM_NUM>  (263) 
fragi: 9  fragj: 12

>  <atom.prop.CHAIN_ID>  (263) 
A A A A A A A A A Z Z Z Z Z Z Z Z Z Z Z Z

>  <atom.prop.IS_HEAVY_ATOM>  (263) 
1 0 0 0 1 1 0 0 1 1 0 0 0 1 1 0 1 1 0 1 0

>  <DIFUSE_FUNC_ATOM>  (263) 
n/a

>  <FINAL_SINGLE_POINT_ENERGY>  (263) 
0

>  <NONCOV_INTER_ENERGY_QM>  (263) 
0

>  <FF_Energy>  (263) 
7.09

>  <QM_Energy>  (263) 
14.55

>  <source>  (263) 
ACEM_MIMD

>  <Index>  (263) 
33075

$$$$
ACEM-pdb4yki-B-ASN-95:MIMD-pdb4yki-B-HID-145
     RDKit          3D

 21 20  0  0  0  0  0  0  0  0999 V2000
   -4.4138   -1.0954    0.3860 C   0  0  0  0  0  0  0  0  0  0  0  0
   -4.6270   -1.4513    1.2628 H   0  0  0  0  0  0  0  0  0  0  0  0
   -3.4508   -1.0839    0.2627 H   0  0  0  0  0  0  0  0  0  0  0  0
   -4.8547   -1.7444   -0.3707 H   0  0  0  0  0  0  0  0  0  0  0  0
   -4.8991    0.3386    0.3419 C   0  0  0  0  0  0  0  0  0  0  0  0
   -3.9546    1.2766    0.3198 N   0  0  0  0  0  0  0  0  0  0  0  0
   -4.1744    2.1076    0.2945 H   0  0  0  0  0  0  0  0  0  0  0  0
   -3.1249    1.0516    0.3311 H   0  0  0  0  0  0  0  0  0  0  0  0
   -6.0897    0.6031    0.4176 O   0  0  0  0  0  0  0  0  0  0  0  0
   -0.1223    2.6307   -0.0867 C   0  0  0  0  0  0  0  0  0  0  0  0
   -0.8272    2.8363   -0.7205 H   0  0  0  0  0  0  0  0  0  0  0  0
    0.7223    2.9754   -0.4171 H   0  0  0  0  0  0  0  0  0  0  0  0
   -0.3512    3.1215    0.8592 H   0  0  0  0  0  0  0  0  0  0  0  0
   -0.0042    1.1571   -0.0139 C   0  0  0  0  0  0  0  0  0  0  0  0
    1.0977    0.3733   -0.0000 C   0  0  0  0  0  0  0  0  0  0  0  0
    1.9816    0.6615   -0.0148 H   0  0  0  0  0  0  0  0  0  0  0  0
    0.6651   -0.9238    0.0061 N   0  0  0  0  0  0  0  0  0  0  0  0
   -0.6609   -0.9267    0.0078 C   0  0  0  0  0  0  0  0  0  0  0  0
   -1.1979   -1.6859    0.0323 H   0  0  0  0  0  0  0  0  0  0  0  0
   -1.0977    0.3202   -0.0000 N   0  0  0  0  0  0  0  0  0  0  0  0
   -2.0483    0.6062    0.0031 H   0  0  0  0  0  0  0  0  0  0  0  0
  1  5  1  0
  5  6  1  0
  5  9  2  0
  1  2  1  0
  1  3  1  0
  1  4  1  0
  6  7  1  0
  6  8  1  0
 10 14  1  0
 14 15  2  0
 15 17  1  0
 17 18  2  0
 18 20  1  0
 20 14  1  0
 10 11  1  0
 10 12  1  0
 10 13  1  0
 15 16  1  0
 18 19  1  0
 20 21  1  0
M  END
>  <PDB_ID>  (264) 
pdb4yki

>  <RESIDUE_NAME>  (264) 
ASN   HID

>  <FRAG_NAME>  (264) 
ACEM   MIMD

>  <FRAG_ATOM_NUM>  (264) 
fragi: 9  fragj: 12

>  <atom.prop.CHAIN_ID>  (264) 
A A A A A A A A A Z Z Z Z Z Z Z Z Z Z Z Z

>  <atom.prop.IS_HEAVY_ATOM>  (264) 
1 0 0 0 1 1 0 0 1 1 0 0 0 1 1 0 1 1 0 1 0

>  <DIFUSE_FUNC_ATOM>  (264) 
n/a

>  <FINAL_SINGLE_POINT_ENERGY>  (264) 
0

>  <NONCOV_INTER_ENERGY_QM>  (264) 
0

>  <FF_Energy>  (264) 
6.87

>  <QM_Energy>  (264) 
13.85

>  <source>  (264) 
ACEM_MIMD

>  <Index>  (264) 
33076

$$$$
ACEM-pdb3zh2-C-ASN-103:MIMD-pdb3zh2-C-HID-139
     RDKit          3D

 21 20  0  0  0  0  0  0  0  0999 V2000
   -3.4414   -4.7936   -1.6892 C   0  0  0  0  0  0  0  0  0  0  0  0
   -3.6942   -5.4002   -0.9412 H   0  0  0  0  0  0  0  0  0  0  0  0
   -3.3095   -5.3158   -2.5267 H   0  0  0  0  0  0  0  0  0  0  0  0
   -4.2377   -4.0657   -1.8442 H   0  0  0  0  0  0  0  0  0  0  0  0
   -2.1169   -4.1284   -1.3320 C   0  0  0  0  0  0  0  0  0  0  0  0
   -2.1943   -3.0917   -0.5423 N   0  0  0  0  0  0  0  0  0  0  0  0
   -3.0772   -2.7667   -0.1934 H   0  0  0  0  0  0  0  0  0  0  0  0
   -1.3574   -2.5971   -0.2669 H   0  0  0  0  0  0  0  0  0  0  0  0
   -1.0385   -4.5261   -1.7771 O   0  0  0  0  0  0  0  0  0  0  0  0
   -0.2404    2.6934   -0.0023 C   0  0  0  0  0  0  0  0  0  0  0  0
   -1.2041    2.8865    0.2163 H   0  0  0  0  0  0  0  0  0  0  0  0
   -0.0535    3.0245   -0.9336 H   0  0  0  0  0  0  0  0  0  0  0  0
    0.4040    3.2166    0.7043 H   0  0  0  0  0  0  0  0  0  0  0  0
   -0.0653    1.1809   -0.0098 C   0  0  0  0  0  0  0  0  0  0  0  0
    1.1077    0.3657    0.0000 C   0  0  0  0  0  0  0  0  0  0  0  0
    2.0266    0.7301    0.0085 H   0  0  0  0  0  0  0  0  0  0  0  0
    0.7065   -0.9274   -0.0043 N   0  0  0  0  0  0  0  0  0  0  0  0
   -0.6412   -0.9571    0.0141 C   0  0  0  0  0  0  0  0  0  0  0  0
   -1.2071   -1.7579    0.0363 H   0  0  0  0  0  0  0  0  0  0  0  0
   -1.1077    0.3380    0.0000 N   0  0  0  0  0  0  0  0  0  0  0  0
   -2.0777    0.5633   -0.0032 H   0  0  0  0  0  0  0  0  0  0  0  0
  1  5  1  0
  5  6  1  0
  5  9  2  0
  1  2  1  0
  1  3  1  0
  1  4  1  0
  6  7  1  0
  6  8  1  0
 10 14  1  0
 14 15  2  0
 15 17  1  0
 17 18  2  0
 18 20  1  0
 20 14  1  0
 10 11  1  0
 10 12  1  0
 10 13  1  0
 15 16  1  0
 18 19  1  0
 20 21  1  0
M  END
>  <PDB_ID>  (265) 
pdb3zh2

>  <RESIDUE_NAME>  (265) 
ASN   HID

>  <FRAG_NAME>  (265) 
ACEM   MIMD

>  <FRAG_ATOM_NUM>  (265) 
fragi: 9  fragj: 12

>  <atom.prop.CHAIN_ID>  (265) 
A A A A A A A A A Z Z Z Z Z Z Z Z Z Z Z Z

>  <atom.prop.IS_HEAVY_ATOM>  (265) 
1 0 0 0 1 1 0 0 1 1 0 0 0 1 1 0 1 1 0 1 0

>  <DIFUSE_FUNC_ATOM>  (265) 
n/a

>  <FINAL_SINGLE_POINT_ENERGY>  (265) 
0

>  <NONCOV_INTER_ENERGY_QM>  (265) 
0

>  <FF_Energy>  (265) 
27.16

>  <QM_Energy>  (265) 
43.8

>  <source>  (265) 
ACEM_MIMD

>  <Index>  (265) 
33088

$$$$
ACEM-pdb4zgw-B-ASN-93:MIMD-pdb4zgw-B-HID-141
     RDKit          3D

 21 20  0  0  0  0  0  0  0  0999 V2000
   -4.6885    1.9057    0.3875 C   0  0  0  0  0  0  0  0  0  0  0  0
   -3.7373    2.1101    0.1694 H   0  0  0  0  0  0  0  0  0  0  0  0
   -4.8534    2.0514    1.3601 H   0  0  0  0  0  0  0  0  0  0  0  0
   -5.3419    2.5578   -0.1920 H   0  0  0  0  0  0  0  0  0  0  0  0
   -4.9248    0.4174    0.0916 C   0  0  0  0  0  0  0  0  0  0  0  0
   -3.8569   -0.3205   -0.1867 N   0  0  0  0  0  0  0  0  0  0  0  0
   -2.9491    0.1116   -0.1876 H   0  0  0  0  0  0  0  0  0  0  0  0
   -3.9501   -1.2887   -0.3916 H   0  0  0  0  0  0  0  0  0  0  0  0
   -6.0883   -0.1069    0.1133 O   0  0  0  0  0  0  0  0  0  0  0  0
   -0.0529    2.6299    0.1215 C   0  0  0  0  0  0  0  0  0  0  0  0
    0.8820    3.0036    0.0288 H   0  0  0  0  0  0  0  0  0  0  0  0
   -0.3911    2.8743    1.0425 H   0  0  0  0  0  0  0  0  0  0  0  0
   -0.6957    3.0979   -0.6242 H   0  0  0  0  0  0  0  0  0  0  0  0
    0.0186    1.1559    0.0226 C   0  0  0  0  0  0  0  0  0  0  0  0
    1.1110    0.3481   -0.0000 C   0  0  0  0  0  0  0  0  0  0  0  0
    2.0628    0.6500    0.0208 H   0  0  0  0  0  0  0  0  0  0  0  0
    0.6657   -0.9374   -0.0540 N   0  0  0  0  0  0  0  0  0  0  0  0
   -0.6843   -0.9128    0.0314 C   0  0  0  0  0  0  0  0  0  0  0  0
   -1.2590   -1.7231    0.1071 H   0  0  0  0  0  0  0  0  0  0  0  0
   -1.1110    0.3461    0.0000 N   0  0  0  0  0  0  0  0  0  0  0  0
   -2.0418    0.6511   -0.0336 H   0  0  0  0  0  0  0  0  0  0  0  0
  1  5  1  0
  5  6  1  0
  5  9  2  0
  1  2  1  0
  1  3  1  0
  1  4  1  0
  6  7  1  0
  6  8  1  0
 10 14  1  0
 14 15  2  0
 15 17  1  0
 17 18  2  0
 18 20  1  0
 20 14  1  0
 10 11  1  0
 10 12  1  0
 10 13  1  0
 15 16  1  0
 18 19  1  0
 20 21  1  0
M  END
>  <PDB_ID>  (266) 
pdb4zgw

>  <RESIDUE_NAME>  (266) 
ASN   HID

>  <FRAG_NAME>  (266) 
ACEM   MIMD

>  <FRAG_ATOM_NUM>  (266) 
fragi: 9  fragj: 12

>  <atom.prop.CHAIN_ID>  (266) 
A A A A A A A A A Z Z Z Z Z Z Z Z Z Z Z Z

>  <atom.prop.IS_HEAVY_ATOM>  (266) 
1 0 0 0 1 1 0 0 1 1 0 0 0 1 1 0 1 1 0 1 0

>  <DIFUSE_FUNC_ATOM>  (266) 
n/a

>  <FINAL_SINGLE_POINT_ENERGY>  (266) 
0

>  <NONCOV_INTER_ENERGY_QM>  (266) 
0

>  <FF_Energy>  (266) 
11.82

>  <QM_Energy>  (266) 
23.59

>  <source>  (266) 
ACEM_MIMD

>  <Index>  (266) 
33465

$$$$
ACEM-pdb4zqe-A-ASN-157:MIMD-pdb4zqe-A-HID-285
     RDKit          3D

 21 20  0  0  0  0  0  0  0  0999 V2000
   -4.2933    0.0597    3.8248 C   0  0  0  0  0  0  0  0  0  0  0  0
   -5.1468    0.1152    3.3165 H   0  0  0  0  0  0  0  0  0  0  0  0
   -4.3483    0.6055    4.6551 H   0  0  0  0  0  0  0  0  0  0  0  0
   -4.1366   -0.9801    4.1120 H   0  0  0  0  0  0  0  0  0  0  0  0
   -3.1781    0.5673    2.9736 C   0  0  0  0  0  0  0  0  0  0  0  0
   -3.3084    0.3870    1.6932 N   0  0  0  0  0  0  0  0  0  0  0  0
   -4.1180   -0.0629    1.3052 H   0  0  0  0  0  0  0  0  0  0  0  0
   -2.5868    0.7013    1.0559 H   0  0  0  0  0  0  0  0  0  0  0  0
   -2.2124    1.0937    3.4743 O   0  0  0  0  0  0  0  0  0  0  0  0
   -0.1470    2.6334    0.0550 C   0  0  0  0  0  0  0  0  0  0  0  0
    0.6325    3.0104    0.5662 H   0  0  0  0  0  0  0  0  0  0  0  0
   -0.9936    2.8525    0.5513 H   0  0  0  0  0  0  0  0  0  0  0  0
   -0.1847    3.1084   -0.9253 H   0  0  0  0  0  0  0  0  0  0  0  0
   -0.0042    1.1702   -0.0257 C   0  0  0  0  0  0  0  0  0  0  0  0
    1.0980    0.3987    0.0000 C   0  0  0  0  0  0  0  0  0  0  0  0
    2.0436    0.7023    0.0078 H   0  0  0  0  0  0  0  0  0  0  0  0
    0.6635   -0.9131    0.0134 N   0  0  0  0  0  0  0  0  0  0  0  0
   -0.6593   -0.9550    0.0123 C   0  0  0  0  0  0  0  0  0  0  0  0
   -1.2197   -1.7690    0.0198 H   0  0  0  0  0  0  0  0  0  0  0  0
   -1.0980    0.2993    0.0000 N   0  0  0  0  0  0  0  0  0  0  0  0
   -2.0512    0.5828    0.0077 H   0  0  0  0  0  0  0  0  0  0  0  0
  1  5  1  0
  5  6  1  0
  5  9  2  0
  1  2  1  0
  1  3  1  0
  1  4  1  0
  6  7  1  0
  6  8  1  0
 10 14  1  0
 14 15  2  0
 15 17  1  0
 17 18  2  0
 18 20  1  0
 20 14  1  0
 10 11  1  0
 10 12  1  0
 10 13  1  0
 15 16  1  0
 18 19  1  0
 20 21  1  0
M  END
>  <PDB_ID>  (267) 
pdb4zqe

>  <RESIDUE_NAME>  (267) 
ASN   HID

>  <FRAG_NAME>  (267) 
ACEM   MIMD

>  <FRAG_ATOM_NUM>  (267) 
fragi: 9  fragj: 12

>  <atom.prop.CHAIN_ID>  (267) 
A A A A A A A A A Z Z Z Z Z Z Z Z Z Z Z Z

>  <atom.prop.IS_HEAVY_ATOM>  (267) 
1 0 0 0 1 1 0 0 1 1 0 0 0 1 1 0 1 1 0 1 0

>  <DIFUSE_FUNC_ATOM>  (267) 
n/a

>  <FINAL_SINGLE_POINT_ENERGY>  (267) 
0

>  <NONCOV_INTER_ENERGY_QM>  (267) 
0

>  <FF_Energy>  (267) 
9.33

>  <QM_Energy>  (267) 
18.28

>  <source>  (267) 
ACEM_MIMD

>  <Index>  (267) 
33572

$$$$
ACEM-pdb5a29-A-GLN-143:MIMD-pdb5a29-B-HID-4
     RDKit          3D

 21 20  0  0  0  0  0  0  0  0999 V2000
   -4.8424   -2.4335    2.5384 C   0  0  0  0  0  0  0  0  0  0  0  0
   -5.3737   -2.7838    1.7760 H   0  0  0  0  0  0  0  0  0  0  0  0
   -5.3447   -1.7227    3.0179 H   0  0  0  0  0  0  0  0  0  0  0  0
   -4.6430   -3.2506    3.2317 H   0  0  0  0  0  0  0  0  0  0  0  0
   -3.5583   -1.8636    2.0204 C   0  0  0  0  0  0  0  0  0  0  0  0
   -2.8969   -2.6064    1.1167 N   0  0  0  0  0  0  0  0  0  0  0  0
   -2.0264   -2.2786    0.7104 H   0  0  0  0  0  0  0  0  0  0  0  0
   -3.2898   -3.5051    0.8492 H   0  0  0  0  0  0  0  0  0  0  0  0
   -3.1790   -0.7336    2.3906 O   0  0  0  0  0  0  0  0  0  0  0  0
   -0.1519    2.6890   -0.0240 C   0  0  0  0  0  0  0  0  0  0  0  0
    0.5395    3.0641    0.5985 H   0  0  0  0  0  0  0  0  0  0  0  0
   -1.0633    2.9212    0.3240 H   0  0  0  0  0  0  0  0  0  0  0  0
   -0.0280    3.1628   -0.9978 H   0  0  0  0  0  0  0  0  0  0  0  0
   -0.0150    1.1792   -0.0387 C   0  0  0  0  0  0  0  0  0  0  0  0
    1.0910    0.3878   -0.0000 C   0  0  0  0  0  0  0  0  0  0  0  0
    2.0396    0.6980    0.0008 H   0  0  0  0  0  0  0  0  0  0  0  0
    0.6711   -0.9334    0.0399 N   0  0  0  0  0  0  0  0  0  0  0  0
   -0.6562   -0.9488   -0.0012 C   0  0  0  0  0  0  0  0  0  0  0  0
   -1.2290   -1.7566   -0.0269 H   0  0  0  0  0  0  0  0  0  0  0  0
   -1.0910    0.3151    0.0000 N   0  0  0  0  0  0  0  0  0  0  0  0
   -2.0516    0.5893    0.0243 H   0  0  0  0  0  0  0  0  0  0  0  0
  1  5  1  0
  5  6  1  0
  5  9  2  0
  1  2  1  0
  1  3  1  0
  1  4  1  0
  6  7  1  0
  6  8  1  0
 10 14  1  0
 14 15  2  0
 15 17  1  0
 17 18  2  0
 18 20  1  0
 20 14  1  0
 10 11  1  0
 10 12  1  0
 10 13  1  0
 15 16  1  0
 18 19  1  0
 20 21  1  0
M  END
>  <PDB_ID>  (268) 
pdb5a29

>  <RESIDUE_NAME>  (268) 
GLN   HID

>  <FRAG_NAME>  (268) 
ACEM   MIMD

>  <FRAG_ATOM_NUM>  (268) 
fragi: 9  fragj: 12

>  <atom.prop.CHAIN_ID>  (268) 
A A A A A A A A A Z Z Z Z Z Z Z Z Z Z Z Z

>  <atom.prop.IS_HEAVY_ATOM>  (268) 
1 0 0 0 1 1 0 0 1 1 0 0 0 1 1 0 1 1 0 1 0

>  <DIFUSE_FUNC_ATOM>  (268) 
n/a

>  <FINAL_SINGLE_POINT_ENERGY>  (268) 
0

>  <NONCOV_INTER_ENERGY_QM>  (268) 
0

>  <FF_Energy>  (268) 
1.48

>  <QM_Energy>  (268) 
10.17

>  <source>  (268) 
ACEM_MIMD

>  <Index>  (268) 
33667

$$$$
ACEM-pdb5ahk-A-GLN-398:MIMD-pdb5ahk-A-HID-415
     RDKit          3D

 21 20  0  0  0  0  0  0  0  0999 V2000
   -4.3020   -0.6873   -0.2028 C   0  0  0  0  0  0  0  0  0  0  0  0
   -3.8681   -1.1588    0.5697 H   0  0  0  0  0  0  0  0  0  0  0  0
   -3.6168   -0.5457   -0.9224 H   0  0  0  0  0  0  0  0  0  0  0  0
   -5.1068   -1.3100   -0.5938 H   0  0  0  0  0  0  0  0  0  0  0  0
   -4.7921    0.6432    0.2620 C   0  0  0  0  0  0  0  0  0  0  0  0
   -3.8801    1.5927    0.3509 N   0  0  0  0  0  0  0  0  0  0  0  0
   -4.1345    2.5460    0.6504 H   0  0  0  0  0  0  0  0  0  0  0  0
   -2.9120    1.3794    0.1211 H   0  0  0  0  0  0  0  0  0  0  0  0
   -5.9628    0.8146    0.5636 O   0  0  0  0  0  0  0  0  0  0  0  0
   -0.1744    2.6503   -0.0344 C   0  0  0  0  0  0  0  0  0  0  0  0
    0.5056    3.0543    0.5850 H   0  0  0  0  0  0  0  0  0  0  0  0
   -1.0927    2.8741    0.3073 H   0  0  0  0  0  0  0  0  0  0  0  0
   -0.0511    3.0825   -1.0274 H   0  0  0  0  0  0  0  0  0  0  0  0
   -0.0119    1.1646   -0.0079 C   0  0  0  0  0  0  0  0  0  0  0  0
    1.0905    0.3877   -0.0000 C   0  0  0  0  0  0  0  0  0  0  0  0
    2.0382    0.7004    0.0115 H   0  0  0  0  0  0  0  0  0  0  0  0
    0.6681   -0.9171   -0.0087 N   0  0  0  0  0  0  0  0  0  0  0  0
   -0.6562   -0.9422    0.0167 C   0  0  0  0  0  0  0  0  0  0  0  0
   -1.2220   -1.7579    0.0451 H   0  0  0  0  0  0  0  0  0  0  0  0
   -1.0905    0.3069    0.0000 N   0  0  0  0  0  0  0  0  0  0  0  0
   -2.0502    0.5869   -0.0068 H   0  0  0  0  0  0  0  0  0  0  0  0
  1  5  1  0
  5  6  1  0
  5  9  2  0
  1  2  1  0
  1  3  1  0
  1  4  1  0
  6  7  1  0
  6  8  1  0
 10 14  1  0
 14 15  2  0
 15 17  1  0
 17 18  2  0
 18 20  1  0
 20 14  1  0
 10 11  1  0
 10 12  1  0
 10 13  1  0
 15 16  1  0
 18 19  1  0
 20 21  1  0
M  END
>  <PDB_ID>  (269) 
pdb5ahk

>  <RESIDUE_NAME>  (269) 
GLN   HID

>  <FRAG_NAME>  (269) 
ACEM   MIMD

>  <FRAG_ATOM_NUM>  (269) 
fragi: 9  fragj: 12

>  <atom.prop.CHAIN_ID>  (269) 
A A A A A A A A A Z Z Z Z Z Z Z Z Z Z Z Z

>  <atom.prop.IS_HEAVY_ATOM>  (269) 
1 0 0 0 1 1 0 0 1 1 0 0 0 1 1 0 1 1 0 1 0

>  <DIFUSE_FUNC_ATOM>  (269) 
n/a

>  <FINAL_SINGLE_POINT_ENERGY>  (269) 
0

>  <NONCOV_INTER_ENERGY_QM>  (269) 
0

>  <FF_Energy>  (269) 
6.94

>  <QM_Energy>  (269) 
14.91

>  <source>  (269) 
ACEM_MIMD

>  <Index>  (269) 
33908

$$$$
ACEM-pdb5ahk-B-GLN-398:MIMD-pdb5ahk-B-HID-415
     RDKit          3D

 21 20  0  0  0  0  0  0  0  0999 V2000
   -4.2935   -0.6810   -0.1855 C   0  0  0  0  0  0  0  0  0  0  0  0
   -3.8492   -1.1441    0.5828 H   0  0  0  0  0  0  0  0  0  0  0  0
   -3.6271   -0.5513   -0.9222 H   0  0  0  0  0  0  0  0  0  0  0  0
   -5.1124   -1.3010   -0.5504 H   0  0  0  0  0  0  0  0  0  0  0  0
   -4.7633    0.6735    0.2798 C   0  0  0  0  0  0  0  0  0  0  0  0
   -3.8494    1.6226    0.3465 N   0  0  0  0  0  0  0  0  0  0  0  0
   -4.0914    2.5720    0.6398 H   0  0  0  0  0  0  0  0  0  0  0  0
   -2.8837    1.4011    0.1012 H   0  0  0  0  0  0  0  0  0  0  0  0
   -5.9408    0.8559    0.6017 O   0  0  0  0  0  0  0  0  0  0  0  0
   -0.1721    2.6413   -0.1007 C   0  0  0  0  0  0  0  0  0  0  0  0
    0.5079    3.0618    0.5119 H   0  0  0  0  0  0  0  0  0  0  0  0
   -1.0911    2.8771    0.2379 H   0  0  0  0  0  0  0  0  0  0  0  0
   -0.0481    3.0494   -1.1037 H   0  0  0  0  0  0  0  0  0  0  0  0
   -0.0132    1.1633   -0.0363 C   0  0  0  0  0  0  0  0  0  0  0  0
    1.0904    0.3829    0.0000 C   0  0  0  0  0  0  0  0  0  0  0  0
    2.0378    0.6993    0.0115 H   0  0  0  0  0  0  0  0  0  0  0  0
    0.6678   -0.9147    0.0187 N   0  0  0  0  0  0  0  0  0  0  0  0
   -0.6546   -0.9393    0.0176 C   0  0  0  0  0  0  0  0  0  0  0  0
   -1.2213   -1.7563    0.0290 H   0  0  0  0  0  0  0  0  0  0  0  0
   -1.0904    0.3078   -0.0000 N   0  0  0  0  0  0  0  0  0  0  0  0
   -2.0502    0.5868    0.0103 H   0  0  0  0  0  0  0  0  0  0  0  0
  1  5  1  0
  5  6  1  0
  5  9  2  0
  1  2  1  0
  1  3  1  0
  1  4  1  0
  6  7  1  0
  6  8  1  0
 10 14  1  0
 14 15  2  0
 15 17  1  0
 17 18  2  0
 18 20  1  0
 20 14  1  0
 10 11  1  0
 10 12  1  0
 10 13  1  0
 15 16  1  0
 18 19  1  0
 20 21  1  0
M  END
>  <PDB_ID>  (270) 
pdb5ahk

>  <RESIDUE_NAME>  (270) 
GLN   HID

>  <FRAG_NAME>  (270) 
ACEM   MIMD

>  <FRAG_ATOM_NUM>  (270) 
fragi: 9  fragj: 12

>  <atom.prop.CHAIN_ID>  (270) 
A A A A A A A A A Z Z Z Z Z Z Z Z Z Z Z Z

>  <atom.prop.IS_HEAVY_ATOM>  (270) 
1 0 0 0 1 1 0 0 1 1 0 0 0 1 1 0 1 1 0 1 0

>  <DIFUSE_FUNC_ATOM>  (270) 
n/a

>  <FINAL_SINGLE_POINT_ENERGY>  (270) 
0

>  <NONCOV_INTER_ENERGY_QM>  (270) 
0

>  <FF_Energy>  (270) 
7.09

>  <QM_Energy>  (270) 
15.43

>  <source>  (270) 
ACEM_MIMD

>  <Index>  (270) 
33916

$$$$
ACEM-pdb6anv-B-ASN-16:MIMD-pdb6anv-B-HID-11
     RDKit          3D

 21 20  0  0  0  0  0  0  0  0999 V2000
   -4.5936    0.5654    1.1557 C   0  0  0  0  0  0  0  0  0  0  0  0
   -3.6346    0.8145    1.2503 H   0  0  0  0  0  0  0  0  0  0  0  0
   -4.7898   -0.2592    1.6775 H   0  0  0  0  0  0  0  0  0  0  0  0
   -5.2029    1.3780    1.5513 H   0  0  0  0  0  0  0  0  0  0  0  0
   -4.8729    0.2786   -0.3213 C   0  0  0  0  0  0  0  0  0  0  0  0
   -3.8095    0.1518   -1.0987 N   0  0  0  0  0  0  0  0  0  0  0  0
   -2.8887    0.2369   -0.7147 H   0  0  0  0  0  0  0  0  0  0  0  0
   -3.9210   -0.0315   -2.0783 H   0  0  0  0  0  0  0  0  0  0  0  0
   -6.0292    0.1743   -0.7536 O   0  0  0  0  0  0  0  0  0  0  0  0
   -0.1711    2.6655   -0.0004 C   0  0  0  0  0  0  0  0  0  0  0  0
    0.7364    3.0765   -0.1550 H   0  0  0  0  0  0  0  0  0  0  0  0
   -0.4895    2.9425    0.9151 H   0  0  0  0  0  0  0  0  0  0  0  0
   -0.8651    3.0528   -0.7464 H   0  0  0  0  0  0  0  0  0  0  0  0
   -0.0169    1.1697   -0.0098 C   0  0  0  0  0  0  0  0  0  0  0  0
    1.0910    0.3908   -0.0000 C   0  0  0  0  0  0  0  0  0  0  0  0
    2.0367    0.7050    0.0030 H   0  0  0  0  0  0  0  0  0  0  0  0
    0.6692   -0.9189    0.0058 N   0  0  0  0  0  0  0  0  0  0  0  0
   -0.6523   -0.9443    0.0039 C   0  0  0  0  0  0  0  0  0  0  0  0
   -1.2188   -1.7627    0.0067 H   0  0  0  0  0  0  0  0  0  0  0  0
   -1.0910    0.3027   -0.0000 N   0  0  0  0  0  0  0  0  0  0  0  0
   -2.0520    0.5790    0.0028 H   0  0  0  0  0  0  0  0  0  0  0  0
  1  5  1  0
  5  6  1  0
  5  9  2  0
  1  2  1  0
  1  3  1  0
  1  4  1  0
  6  7  1  0
  6  8  1  0
 10 14  1  0
 14 15  2  0
 15 17  1  0
 17 18  2  0
 18 20  1  0
 20 14  1  0
 10 11  1  0
 10 12  1  0
 10 13  1  0
 15 16  1  0
 18 19  1  0
 20 21  1  0
M  END
>  <PDB_ID>  (271) 
pdb6anv

>  <RESIDUE_NAME>  (271) 
ASN   HID

>  <FRAG_NAME>  (271) 
ACEM   MIMD

>  <FRAG_ATOM_NUM>  (271) 
fragi: 9  fragj: 12

>  <atom.prop.CHAIN_ID>  (271) 
A A A A A A A A A Z Z Z Z Z Z Z Z Z Z Z Z

>  <atom.prop.IS_HEAVY_ATOM>  (271) 
1 0 0 0 1 1 0 0 1 1 0 0 0 1 1 0 1 1 0 1 0

>  <DIFUSE_FUNC_ATOM>  (271) 
n/a

>  <FINAL_SINGLE_POINT_ENERGY>  (271) 
0

>  <NONCOV_INTER_ENERGY_QM>  (271) 
0

>  <FF_Energy>  (271) 
8.26

>  <QM_Energy>  (271) 
16.72

>  <source>  (271) 
ACEM_MIMD

>  <Index>  (271) 
34052

$$$$
ACEM-pdb5azp-A-ASN-364:MIMD-pdb5azp-C-HID-224
     RDKit          3D

 21 20  0  0  0  0  0  0  0  0999 V2000
   -5.3568    0.6414   -1.0560 C   0  0  0  0  0  0  0  0  0  0  0  0
   -5.6569    1.0437   -1.9261 H   0  0  0  0  0  0  0  0  0  0  0  0
   -6.1663    0.4472   -0.4933 H   0  0  0  0  0  0  0  0  0  0  0  0
   -4.8391   -0.2955   -1.2618 H   0  0  0  0  0  0  0  0  0  0  0  0
   -4.5094    1.6584   -0.3315 C   0  0  0  0  0  0  0  0  0  0  0  0
   -3.4700    1.1654    0.2410 N   0  0  0  0  0  0  0  0  0  0  0  0
   -3.2253    0.1959    0.2135 H   0  0  0  0  0  0  0  0  0  0  0  0
   -2.8347    1.7822    0.7649 H   0  0  0  0  0  0  0  0  0  0  0  0
   -4.7875    2.8345   -0.2681 O   0  0  0  0  0  0  0  0  0  0  0  0
   -0.2458    2.6518   -0.0242 C   0  0  0  0  0  0  0  0  0  0  0  0
   -1.1073    2.8276    0.4692 H   0  0  0  0  0  0  0  0  0  0  0  0
   -0.3556    2.9741   -0.9731 H   0  0  0  0  0  0  0  0  0  0  0  0
    0.5659    3.2004    0.4537 H   0  0  0  0  0  0  0  0  0  0  0  0
   -0.0316    1.1666   -0.0632 C   0  0  0  0  0  0  0  0  0  0  0  0
    1.0858    0.4038    0.0000 C   0  0  0  0  0  0  0  0  0  0  0  0
    2.0254    0.7224    0.0272 H   0  0  0  0  0  0  0  0  0  0  0  0
    0.6707   -0.9188    0.0209 N   0  0  0  0  0  0  0  0  0  0  0  0
   -0.6391   -0.9509    0.0423 C   0  0  0  0  0  0  0  0  0  0  0  0
   -1.2085   -1.7663    0.0847 H   0  0  0  0  0  0  0  0  0  0  0  0
   -1.0858    0.2994    0.0000 N   0  0  0  0  0  0  0  0  0  0  0  0
   -2.0547    0.5604    0.0126 H   0  0  0  0  0  0  0  0  0  0  0  0
  1  5  1  0
  5  6  1  0
  5  9  2  0
  1  2  1  0
  1  3  1  0
  1  4  1  0
  6  7  1  0
  6  8  1  0
 10 14  1  0
 14 15  2  0
 15 17  1  0
 17 18  2  0
 18 20  1  0
 20 14  1  0
 10 11  1  0
 10 12  1  0
 10 13  1  0
 15 16  1  0
 18 19  1  0
 20 21  1  0
M  END
>  <PDB_ID>  (272) 
pdb5azp

>  <RESIDUE_NAME>  (272) 
ASN   HID

>  <FRAG_NAME>  (272) 
ACEM   MIMD

>  <FRAG_ATOM_NUM>  (272) 
fragi: 9  fragj: 12

>  <atom.prop.CHAIN_ID>  (272) 
A A A A A A A A A Z Z Z Z Z Z Z Z Z Z Z Z

>  <atom.prop.IS_HEAVY_ATOM>  (272) 
1 0 0 0 1 1 0 0 1 1 0 0 0 1 1 0 1 1 0 1 0

>  <DIFUSE_FUNC_ATOM>  (272) 
n/a

>  <FINAL_SINGLE_POINT_ENERGY>  (272) 
0

>  <NONCOV_INTER_ENERGY_QM>  (272) 
0

>  <FF_Energy>  (272) 
18.47

>  <QM_Energy>  (272) 
24.64

>  <source>  (272) 
ACEM_MIMD

>  <Index>  (272) 
34174

$$$$
ACEM-pdb5b7u-A-GLN-161:MIMD-pdb5b7u-A-HID-171
     RDKit          3D

 21 20  0  0  0  0  0  0  0  0999 V2000
   -4.2477   -1.3744   -0.1542 C   0  0  0  0  0  0  0  0  0  0  0  0
   -3.6962   -1.1968   -0.9900 H   0  0  0  0  0  0  0  0  0  0  0  0
   -3.9156   -0.7308    0.5596 H   0  0  0  0  0  0  0  0  0  0  0  0
   -5.2972   -1.1685   -0.3644 H   0  0  0  0  0  0  0  0  0  0  0  0
   -3.9281   -2.7860    0.3140 C   0  0  0  0  0  0  0  0  0  0  0  0
   -2.7095   -2.9889    0.5685 N   0  0  0  0  0  0  0  0  0  0  0  0
   -2.3777   -3.9342    0.9157 H   0  0  0  0  0  0  0  0  0  0  0  0
   -2.0040   -2.2589    0.4508 H   0  0  0  0  0  0  0  0  0  0  0  0
   -4.7593   -3.6642    0.3923 O   0  0  0  0  0  0  0  0  0  0  0  0
   -0.1692    2.6380   -0.0795 C   0  0  0  0  0  0  0  0  0  0  0  0
   -1.1555    2.8534   -0.1060 H   0  0  0  0  0  0  0  0  0  0  0  0
    0.2465    2.9771   -0.9346 H   0  0  0  0  0  0  0  0  0  0  0  0
    0.2875    3.1492    0.7680 H   0  0  0  0  0  0  0  0  0  0  0  0
   -0.0160    1.1594   -0.0421 C   0  0  0  0  0  0  0  0  0  0  0  0
    1.0813    0.3926    0.0000 C   0  0  0  0  0  0  0  0  0  0  0  0
    2.0304    0.7075    0.0171 H   0  0  0  0  0  0  0  0  0  0  0  0
    0.6625   -0.9067    0.0174 N   0  0  0  0  0  0  0  0  0  0  0  0
   -0.6466   -0.9396    0.0248 C   0  0  0  0  0  0  0  0  0  0  0  0
   -1.2113   -1.7625    0.0467 H   0  0  0  0  0  0  0  0  0  0  0  0
   -1.0813    0.2943   -0.0000 N   0  0  0  0  0  0  0  0  0  0  0  0
   -2.0469    0.5733    0.0095 H   0  0  0  0  0  0  0  0  0  0  0  0
  1  5  1  0
  5  6  1  0
  5  9  2  0
  1  2  1  0
  1  3  1  0
  1  4  1  0
  6  7  1  0
  6  8  1  0
 10 14  1  0
 14 15  2  0
 15 17  1  0
 17 18  2  0
 18 20  1  0
 20 14  1  0
 10 11  1  0
 10 12  1  0
 10 13  1  0
 15 16  1  0
 18 19  1  0
 20 21  1  0
M  END
>  <PDB_ID>  (273) 
pdb5b7u

>  <RESIDUE_NAME>  (273) 
GLN   HID

>  <FRAG_NAME>  (273) 
ACEM   MIMD

>  <FRAG_ATOM_NUM>  (273) 
fragi: 9  fragj: 12

>  <atom.prop.CHAIN_ID>  (273) 
A A A A A A A A A Z Z Z Z Z Z Z Z Z Z Z Z

>  <atom.prop.IS_HEAVY_ATOM>  (273) 
1 0 0 0 1 1 0 0 1 1 0 0 0 1 1 0 1 1 0 1 0

>  <DIFUSE_FUNC_ATOM>  (273) 
n/a

>  <FINAL_SINGLE_POINT_ENERGY>  (273) 
0

>  <NONCOV_INTER_ENERGY_QM>  (273) 
0

>  <FF_Energy>  (273) 
7.32

>  <QM_Energy>  (273) 
22.84

>  <source>  (273) 
ACEM_MIMD

>  <Index>  (273) 
34320

$$$$
ACEM-pdb5b7u-B-GLN-161:MIMD-pdb5b7u-B-HID-171
     RDKit          3D

 21 20  0  0  0  0  0  0  0  0999 V2000
   -4.0969   -1.4620   -0.0704 C   0  0  0  0  0  0  0  0  0  0  0  0
   -3.6976   -1.4034   -0.9927 H   0  0  0  0  0  0  0  0  0  0  0  0
   -3.6675   -0.7574    0.5064 H   0  0  0  0  0  0  0  0  0  0  0  0
   -5.1664   -1.2619   -0.1351 H   0  0  0  0  0  0  0  0  0  0  0  0
   -3.7616   -2.8201    0.5071 C   0  0  0  0  0  0  0  0  0  0  0  0
   -2.5392   -2.9979    0.8411 N   0  0  0  0  0  0  0  0  0  0  0  0
   -2.2160   -3.8966    1.2613 H   0  0  0  0  0  0  0  0  0  0  0  0
   -1.8463   -2.2566    0.7023 H   0  0  0  0  0  0  0  0  0  0  0  0
   -4.6140   -3.6931    0.6256 O   0  0  0  0  0  0  0  0  0  0  0  0
   -0.1977    2.6388    0.0007 C   0  0  0  0  0  0  0  0  0  0  0  0
   -1.1863    2.8363    0.0503 H   0  0  0  0  0  0  0  0  0  0  0  0
    0.1461    2.9944   -0.8792 H   0  0  0  0  0  0  0  0  0  0  0  0
    0.3160    3.1402    0.8209 H   0  0  0  0  0  0  0  0  0  0  0  0
   -0.0217    1.1591    0.0008 C   0  0  0  0  0  0  0  0  0  0  0  0
    1.0860    0.3930    0.0000 C   0  0  0  0  0  0  0  0  0  0  0  0
    2.0305    0.7130   -0.0051 H   0  0  0  0  0  0  0  0  0  0  0  0
    0.6679   -0.9061    0.0088 N   0  0  0  0  0  0  0  0  0  0  0  0
   -0.6462   -0.9403   -0.0096 C   0  0  0  0  0  0  0  0  0  0  0  0
   -1.2071   -1.7643   -0.0265 H   0  0  0  0  0  0  0  0  0  0  0  0
   -1.0860    0.2943   -0.0000 N   0  0  0  0  0  0  0  0  0  0  0  0
   -2.0512    0.5691    0.0054 H   0  0  0  0  0  0  0  0  0  0  0  0
  1  5  1  0
  5  6  1  0
  5  9  2  0
  1  2  1  0
  1  3  1  0
  1  4  1  0
  6  7  1  0
  6  8  1  0
 10 14  1  0
 14 15  2  0
 15 17  1  0
 17 18  2  0
 18 20  1  0
 20 14  1  0
 10 11  1  0
 10 12  1  0
 10 13  1  0
 15 16  1  0
 18 19  1  0
 20 21  1  0
M  END
>  <PDB_ID>  (274) 
pdb5b7u

>  <RESIDUE_NAME>  (274) 
GLN   HID

>  <FRAG_NAME>  (274) 
ACEM   MIMD

>  <FRAG_ATOM_NUM>  (274) 
fragi: 9  fragj: 12

>  <atom.prop.CHAIN_ID>  (274) 
A A A A A A A A A Z Z Z Z Z Z Z Z Z Z Z Z

>  <atom.prop.IS_HEAVY_ATOM>  (274) 
1 0 0 0 1 1 0 0 1 1 0 0 0 1 1 0 1 1 0 1 0

>  <DIFUSE_FUNC_ATOM>  (274) 
n/a

>  <FINAL_SINGLE_POINT_ENERGY>  (274) 
0

>  <NONCOV_INTER_ENERGY_QM>  (274) 
0

>  <FF_Energy>  (274) 
6.39

>  <QM_Energy>  (274) 
19.11

>  <source>  (274) 
ACEM_MIMD

>  <Index>  (274) 
34321

$$$$
ACEM-pdb6bim-A-GLN-257:MIMD-pdb6bim-A-HID-246
     RDKit          3D

 21 20  0  0  0  0  0  0  0  0999 V2000
   -0.1230   -3.0497    3.1541 C   0  0  0  0  0  0  0  0  0  0  0  0
    0.6815   -2.5116    3.0842 H   0  0  0  0  0  0  0  0  0  0  0  0
   -0.0930   -3.5880    3.9598 H   0  0  0  0  0  0  0  0  0  0  0  0
   -0.9886   -2.3890    3.2001 H   0  0  0  0  0  0  0  0  0  0  0  0
   -0.1618   -3.9918    1.9623 C   0  0  0  0  0  0  0  0  0  0  0  0
   -0.6294   -3.4876    0.8280 N   0  0  0  0  0  0  0  0  0  0  0  0
   -0.8894   -2.6686    0.7965 H   0  0  0  0  0  0  0  0  0  0  0  0
   -0.6712   -3.9798    0.1231 H   0  0  0  0  0  0  0  0  0  0  0  0
    0.2280   -5.1568    2.0586 O   0  0  0  0  0  0  0  0  0  0  0  0
   -0.2043    2.6593    0.0136 C   0  0  0  0  0  0  0  0  0  0  0  0
    0.5117    3.0407   -0.5181 H   0  0  0  0  0  0  0  0  0  0  0  0
   -0.1276    2.9657    0.9315 H   0  0  0  0  0  0  0  0  0  0  0  0
   -1.1576    3.0016   -0.3891 H   0  0  0  0  0  0  0  0  0  0  0  0
   -0.0214    1.1679    0.0167 C   0  0  0  0  0  0  0  0  0  0  0  0
    1.0896    0.3940    0.0000 C   0  0  0  0  0  0  0  0  0  0  0  0
    1.9717    0.6908    0.0037 H   0  0  0  0  0  0  0  0  0  0  0  0
    0.6709   -0.9166   -0.0081 N   0  0  0  0  0  0  0  0  0  0  0  0
   -0.6495   -0.9447   -0.0086 C   0  0  0  0  0  0  0  0  0  0  0  0
   -1.1781   -1.7101   -0.0141 H   0  0  0  0  0  0  0  0  0  0  0  0
   -1.0896    0.2994   -0.0000 N   0  0  0  0  0  0  0  0  0  0  0  0
   -2.0539    0.5730   -0.0059 H   0  0  0  0  0  0  0  0  0  0  0  0
  1  5  1  0
  5  6  1  0
  5  9  2  0
  1  2  1  0
  1  3  1  0
  1  4  1  0
  6  7  1  0
  6  8  1  0
 10 14  1  0
 14 15  2  0
 15 17  1  0
 17 18  2  0
 18 20  1  0
 20 14  1  0
 10 11  1  0
 10 12  1  0
 10 13  1  0
 15 16  1  0
 18 19  1  0
 20 21  1  0
M  END
>  <PDB_ID>  (275) 
pdb6bim

>  <RESIDUE_NAME>  (275) 
GLN   HID

>  <FRAG_NAME>  (275) 
ACEM   MIMD

>  <FRAG_ATOM_NUM>  (275) 
fragi: 9  fragj: 12

>  <atom.prop.CHAIN_ID>  (275) 
A A A A A A A A A Z Z Z Z Z Z Z Z Z Z Z Z

>  <atom.prop.IS_HEAVY_ATOM>  (275) 
1 0 0 0 1 1 0 0 1 1 0 0 0 1 1 0 1 1 0 1 0

>  <DIFUSE_FUNC_ATOM>  (275) 
n/a

>  <FINAL_SINGLE_POINT_ENERGY>  (275) 
0

>  <NONCOV_INTER_ENERGY_QM>  (275) 
0

>  <FF_Energy>  (275) 
6.81

>  <QM_Energy>  (275) 
13.71

>  <source>  (275) 
ACEM_MIMD

>  <Index>  (275) 
34553

$$$$
ACEM-pdb6bmt-A-ASN-587:MIMD-pdb6bmt-A-HID-502
     RDKit          3D

 21 20  0  0  0  0  0  0  0  0999 V2000
   -6.0307   -1.5878    0.4645 C   0  0  0  0  0  0  0  0  0  0  0  0
   -6.5207   -0.7658    0.1811 H   0  0  0  0  0  0  0  0  0  0  0  0
   -6.0954   -1.6965    1.4547 H   0  0  0  0  0  0  0  0  0  0  0  0
   -6.5059   -2.4486   -0.0057 H   0  0  0  0  0  0  0  0  0  0  0  0
   -4.5923   -1.4540    0.0816 C   0  0  0  0  0  0  0  0  0  0  0  0
   -4.0944   -0.2395    0.1296 N   0  0  0  0  0  0  0  0  0  0  0  0
   -4.6570    0.5392    0.4145 H   0  0  0  0  0  0  0  0  0  0  0  0
   -3.1318   -0.0773   -0.1213 H   0  0  0  0  0  0  0  0  0  0  0  0
   -3.9257   -2.4363   -0.2598 O   0  0  0  0  0  0  0  0  0  0  0  0
   -0.1645    2.6489    0.0060 C   0  0  0  0  0  0  0  0  0  0  0  0
   -0.9401    2.8906    0.6021 H   0  0  0  0  0  0  0  0  0  0  0  0
   -0.3840    2.9404   -0.9330 H   0  0  0  0  0  0  0  0  0  0  0  0
    0.7263    3.1780    0.3447 H   0  0  0  0  0  0  0  0  0  0  0  0
   -0.0145    1.1654    0.0117 C   0  0  0  0  0  0  0  0  0  0  0  0
    1.0916    0.3867    0.0000 C   0  0  0  0  0  0  0  0  0  0  0  0
    2.0372    0.7011   -0.0103 H   0  0  0  0  0  0  0  0  0  0  0  0
    0.6679   -0.9172    0.0058 N   0  0  0  0  0  0  0  0  0  0  0  0
   -0.6534   -0.9399   -0.0175 C   0  0  0  0  0  0  0  0  0  0  0  0
   -1.2202   -1.7587   -0.0430 H   0  0  0  0  0  0  0  0  0  0  0  0
   -1.0916    0.3050   -0.0000 N   0  0  0  0  0  0  0  0  0  0  0  0
   -2.0518    0.5833    0.0034 H   0  0  0  0  0  0  0  0  0  0  0  0
  1  5  1  0
  5  6  1  0
  5  9  2  0
  1  2  1  0
  1  3  1  0
  1  4  1  0
  6  7  1  0
  6  8  1  0
 10 14  1  0
 14 15  2  0
 15 17  1  0
 17 18  2  0
 18 20  1  0
 20 14  1  0
 10 11  1  0
 10 12  1  0
 10 13  1  0
 15 16  1  0
 18 19  1  0
 20 21  1  0
M  END
>  <PDB_ID>  (276) 
pdb6bmt

>  <RESIDUE_NAME>  (276) 
ASN   HID

>  <FRAG_NAME>  (276) 
ACEM   MIMD

>  <FRAG_ATOM_NUM>  (276) 
fragi: 9  fragj: 12

>  <atom.prop.CHAIN_ID>  (276) 
A A A A A A A A A Z Z Z Z Z Z Z Z Z Z Z Z

>  <atom.prop.IS_HEAVY_ATOM>  (276) 
1 0 0 0 1 1 0 0 1 1 0 0 0 1 1 0 1 1 0 1 0

>  <DIFUSE_FUNC_ATOM>  (276) 
n/a

>  <FINAL_SINGLE_POINT_ENERGY>  (276) 
0

>  <NONCOV_INTER_ENERGY_QM>  (276) 
0

>  <FF_Energy>  (276) 
4.98

>  <QM_Energy>  (276) 
11.22

>  <source>  (276) 
ACEM_MIMD

>  <Index>  (276) 
34658

$$$$
ACEM-pdb5byv-B-GLN-103:MIMD-pdb5byv-B-HID-109
     RDKit          3D

 21 20  0  0  0  0  0  0  0  0999 V2000
   -4.3258    1.5480    1.7624 C   0  0  0  0  0  0  0  0  0  0  0  0
   -5.1362    2.0868    1.5594 H   0  0  0  0  0  0  0  0  0  0  0  0
   -3.5370    1.9103    1.2764 H   0  0  0  0  0  0  0  0  0  0  0  0
   -4.1324    1.5814    2.8346 H   0  0  0  0  0  0  0  0  0  0  0  0
   -4.5723    0.1126    1.2717 C   0  0  0  0  0  0  0  0  0  0  0  0
   -3.7740   -0.3380    0.3112 N   0  0  0  0  0  0  0  0  0  0  0  0
   -3.8725   -1.2765   -0.0467 H   0  0  0  0  0  0  0  0  0  0  0  0
   -3.0560    0.2850   -0.0601 H   0  0  0  0  0  0  0  0  0  0  0  0
   -5.4720   -0.5735    1.7563 O   0  0  0  0  0  0  0  0  0  0  0  0
   -0.1818    2.6542    0.0107 C   0  0  0  0  0  0  0  0  0  0  0  0
   -1.0242    2.8837    0.5119 H   0  0  0  0  0  0  0  0  0  0  0  0
   -0.2892    2.9567   -0.9439 H   0  0  0  0  0  0  0  0  0  0  0  0
    0.6514    3.1965    0.4577 H   0  0  0  0  0  0  0  0  0  0  0  0
   -0.0171    1.1675    0.0191 C   0  0  0  0  0  0  0  0  0  0  0  0
    1.0907    0.3889    0.0000 C   0  0  0  0  0  0  0  0  0  0  0  0
    2.0359    0.7046   -0.0066 H   0  0  0  0  0  0  0  0  0  0  0  0
    0.6697   -0.9186   -0.0075 N   0  0  0  0  0  0  0  0  0  0  0  0
   -0.6526   -0.9422   -0.0116 C   0  0  0  0  0  0  0  0  0  0  0  0
   -1.2191   -1.7601   -0.0202 H   0  0  0  0  0  0  0  0  0  0  0  0
   -1.0907    0.3044   -0.0000 N   0  0  0  0  0  0  0  0  0  0  0  0
   -2.0521    0.5808   -0.0054 H   0  0  0  0  0  0  0  0  0  0  0  0
  1  5  1  0
  5  6  1  0
  5  9  2  0
  1  2  1  0
  1  3  1  0
  1  4  1  0
  6  7  1  0
  6  8  1  0
 10 14  1  0
 14 15  2  0
 15 17  1  0
 17 18  2  0
 18 20  1  0
 20 14  1  0
 10 11  1  0
 10 12  1  0
 10 13  1  0
 15 16  1  0
 18 19  1  0
 20 21  1  0
M  END
>  <PDB_ID>  (277) 
pdb5byv

>  <RESIDUE_NAME>  (277) 
GLN   HID

>  <FRAG_NAME>  (277) 
ACEM   MIMD

>  <FRAG_ATOM_NUM>  (277) 
fragi: 9  fragj: 12

>  <atom.prop.CHAIN_ID>  (277) 
A A A A A A A A A Z Z Z Z Z Z Z Z Z Z Z Z

>  <atom.prop.IS_HEAVY_ATOM>  (277) 
1 0 0 0 1 1 0 0 1 1 0 0 0 1 1 0 1 1 0 1 0

>  <DIFUSE_FUNC_ATOM>  (277) 
n/a

>  <FINAL_SINGLE_POINT_ENERGY>  (277) 
0

>  <NONCOV_INTER_ENERGY_QM>  (277) 
0

>  <FF_Energy>  (277) 
12.52

>  <QM_Energy>  (277) 
25.19

>  <source>  (277) 
ACEM_MIMD

>  <Index>  (277) 
34720

$$$$
ACEM-pdb5byv-D-GLN-103:MIMD-pdb5byv-D-HID-109
     RDKit          3D

 21 20  0  0  0  0  0  0  0  0999 V2000
   -4.6165    1.1658    1.2941 C   0  0  0  0  0  0  0  0  0  0  0  0
   -5.5248    1.5571    1.2191 H   0  0  0  0  0  0  0  0  0  0  0  0
   -3.9741    1.6527    0.7171 H   0  0  0  0  0  0  0  0  0  0  0  0
   -4.2843    1.2199    2.3309 H   0  0  0  0  0  0  0  0  0  0  0  0
   -4.6864   -0.2954    0.8028 C   0  0  0  0  0  0  0  0  0  0  0  0
   -3.7813   -0.6604   -0.0848 N   0  0  0  0  0  0  0  0  0  0  0  0
   -3.7584   -1.6093   -0.4417 H   0  0  0  0  0  0  0  0  0  0  0  0
   -3.1015    0.0263   -0.4101 H   0  0  0  0  0  0  0  0  0  0  0  0
   -5.5568   -1.0653    1.2143 O   0  0  0  0  0  0  0  0  0  0  0  0
   -0.1835    2.6572    0.0061 C   0  0  0  0  0  0  0  0  0  0  0  0
   -1.1134    2.8742    0.3294 H   0  0  0  0  0  0  0  0  0  0  0  0
   -0.0977    2.9841   -0.9438 H   0  0  0  0  0  0  0  0  0  0  0  0
    0.5358    3.1933    0.6253 H   0  0  0  0  0  0  0  0  0  0  0  0
   -0.0181    1.1681    0.0090 C   0  0  0  0  0  0  0  0  0  0  0  0
    1.0906    0.3903   -0.0000 C   0  0  0  0  0  0  0  0  0  0  0  0
    2.0352    0.7051   -0.0022 H   0  0  0  0  0  0  0  0  0  0  0  0
    0.6693   -0.9185   -0.0034 N   0  0  0  0  0  0  0  0  0  0  0  0
   -0.6512   -0.9433   -0.0056 C   0  0  0  0  0  0  0  0  0  0  0  0
   -1.2185   -1.7616   -0.0090 H   0  0  0  0  0  0  0  0  0  0  0  0
   -1.0906    0.3033    0.0000 N   0  0  0  0  0  0  0  0  0  0  0  0
   -2.0529    0.5782   -0.0028 H   0  0  0  0  0  0  0  0  0  0  0  0
  1  5  1  0
  5  6  1  0
  5  9  2  0
  1  2  1  0
  1  3  1  0
  1  4  1  0
  6  7  1  0
  6  8  1  0
 10 14  1  0
 14 15  2  0
 15 17  1  0
 17 18  2  0
 18 20  1  0
 20 14  1  0
 10 11  1  0
 10 12  1  0
 10 13  1  0
 15 16  1  0
 18 19  1  0
 20 21  1  0
M  END
>  <PDB_ID>  (278) 
pdb5byv

>  <RESIDUE_NAME>  (278) 
GLN   HID

>  <FRAG_NAME>  (278) 
ACEM   MIMD

>  <FRAG_ATOM_NUM>  (278) 
fragi: 9  fragj: 12

>  <atom.prop.CHAIN_ID>  (278) 
A A A A A A A A A Z Z Z Z Z Z Z Z Z Z Z Z

>  <atom.prop.IS_HEAVY_ATOM>  (278) 
1 0 0 0 1 1 0 0 1 1 0 0 0 1 1 0 1 1 0 1 0

>  <DIFUSE_FUNC_ATOM>  (278) 
n/a

>  <FINAL_SINGLE_POINT_ENERGY>  (278) 
0

>  <NONCOV_INTER_ENERGY_QM>  (278) 
0

>  <FF_Energy>  (278) 
8.06

>  <QM_Energy>  (278) 
13.91

>  <source>  (278) 
ACEM_MIMD

>  <Index>  (278) 
34727

$$$$
ACEM-pdb5byv-L-GLN-103:MIMD-pdb5byv-L-HID-109
     RDKit          3D

 21 20  0  0  0  0  0  0  0  0999 V2000
   -4.1994    1.3223    2.2821 C   0  0  0  0  0  0  0  0  0  0  0  0
   -5.0980    1.7351    2.3613 H   0  0  0  0  0  0  0  0  0  0  0  0
   -3.6302    1.8378    1.6530 H   0  0  0  0  0  0  0  0  0  0  0  0
   -3.7256    1.3109    3.2636 H   0  0  0  0  0  0  0  0  0  0  0  0
   -4.3585   -0.0865    1.7498 C   0  0  0  0  0  0  0  0  0  0  0  0
   -3.6639   -0.4029    0.6695 N   0  0  0  0  0  0  0  0  0  0  0  0
   -3.7099   -1.3328    0.2653 H   0  0  0  0  0  0  0  0  0  0  0  0
   -3.0712    0.3104    0.2391 H   0  0  0  0  0  0  0  0  0  0  0  0
   -5.1093   -0.8792    2.3047 O   0  0  0  0  0  0  0  0  0  0  0  0
   -0.1784    2.6502   -0.0017 C   0  0  0  0  0  0  0  0  0  0  0  0
   -1.0441    2.8782    0.4604 H   0  0  0  0  0  0  0  0  0  0  0  0
   -0.2395    2.9612   -0.9573 H   0  0  0  0  0  0  0  0  0  0  0  0
    0.6328    3.1876    0.4894 H   0  0  0  0  0  0  0  0  0  0  0  0
   -0.0161    1.1657    0.0029 C   0  0  0  0  0  0  0  0  0  0  0  0
    1.0921    0.3871   -0.0000 C   0  0  0  0  0  0  0  0  0  0  0  0
    2.0374    0.7018    0.0002 H   0  0  0  0  0  0  0  0  0  0  0  0
    0.6694   -0.9195   -0.0026 N   0  0  0  0  0  0  0  0  0  0  0  0
   -0.6533   -0.9400   -0.0002 C   0  0  0  0  0  0  0  0  0  0  0  0
   -1.2209   -1.7586    0.0026 H   0  0  0  0  0  0  0  0  0  0  0  0
   -1.0921    0.3067    0.0000 N   0  0  0  0  0  0  0  0  0  0  0  0
   -2.0523    0.5836   -0.0022 H   0  0  0  0  0  0  0  0  0  0  0  0
  1  5  1  0
  5  6  1  0
  5  9  2  0
  1  2  1  0
  1  3  1  0
  1  4  1  0
  6  7  1  0
  6  8  1  0
 10 14  1  0
 14 15  2  0
 15 17  1  0
 17 18  2  0
 18 20  1  0
 20 14  1  0
 10 11  1  0
 10 12  1  0
 10 13  1  0
 15 16  1  0
 18 19  1  0
 20 21  1  0
M  END
>  <PDB_ID>  (279) 
pdb5byv

>  <RESIDUE_NAME>  (279) 
GLN   HID

>  <FRAG_NAME>  (279) 
ACEM   MIMD

>  <FRAG_ATOM_NUM>  (279) 
fragi: 9  fragj: 12

>  <atom.prop.CHAIN_ID>  (279) 
A A A A A A A A A Z Z Z Z Z Z Z Z Z Z Z Z

>  <atom.prop.IS_HEAVY_ATOM>  (279) 
1 0 0 0 1 1 0 0 1 1 0 0 0 1 1 0 1 1 0 1 0

>  <DIFUSE_FUNC_ATOM>  (279) 
n/a

>  <FINAL_SINGLE_POINT_ENERGY>  (279) 
0

>  <NONCOV_INTER_ENERGY_QM>  (279) 
0

>  <FF_Energy>  (279) 
12.88

>  <QM_Energy>  (279) 
24.01

>  <source>  (279) 
ACEM_MIMD

>  <Index>  (279) 
34740

$$$$
ACEM-pdb5c9l-A-GLN-211:MIMD-pdb5c9l-A-HID-196
     RDKit          3D

 21 20  0  0  0  0  0  0  0  0999 V2000
   -3.7221   -2.5047   -1.8708 C   0  0  0  0  0  0  0  0  0  0  0  0
   -3.7886   -2.1835   -0.9333 H   0  0  0  0  0  0  0  0  0  0  0  0
   -4.5592   -2.9675   -2.1413 H   0  0  0  0  0  0  0  0  0  0  0  0
   -3.5145   -1.6721   -2.5430 H   0  0  0  0  0  0  0  0  0  0  0  0
   -2.5779   -3.5684   -1.9090 C   0  0  0  0  0  0  0  0  0  0  0  0
   -1.6078   -3.5436   -0.8954 N   0  0  0  0  0  0  0  0  0  0  0  0
   -0.9046   -4.1929   -0.8883 H   0  0  0  0  0  0  0  0  0  0  0  0
   -1.7174   -2.8068   -0.2051 H   0  0  0  0  0  0  0  0  0  0  0  0
   -2.5150   -4.3290   -2.8998 O   0  0  0  0  0  0  0  0  0  0  0  0
    0.0899    2.6493    0.1063 C   0  0  0  0  0  0  0  0  0  0  0  0
    1.0283    2.9630   -0.1358 H   0  0  0  0  0  0  0  0  0  0  0  0
   -0.0657    2.9225    1.0757 H   0  0  0  0  0  0  0  0  0  0  0  0
   -0.6150    3.2063   -0.5110 H   0  0  0  0  0  0  0  0  0  0  0  0
    0.0373    1.1775    0.0094 C   0  0  0  0  0  0  0  0  0  0  0  0
    1.0995    0.3483   -0.0000 C   0  0  0  0  0  0  0  0  0  0  0  0
    2.0661    0.6317   -0.0148 H   0  0  0  0  0  0  0  0  0  0  0  0
    0.6401   -0.9257    0.0151 N   0  0  0  0  0  0  0  0  0  0  0  0
   -0.6774   -0.9398   -0.0245 C   0  0  0  0  0  0  0  0  0  0  0  0
   -1.2621   -1.7335   -0.0633 H   0  0  0  0  0  0  0  0  0  0  0  0
   -1.0995    0.3396    0.0000 N   0  0  0  0  0  0  0  0  0  0  0  0
   -2.0318    0.6430    0.0089 H   0  0  0  0  0  0  0  0  0  0  0  0
  1  5  1  0
  5  6  1  0
  5  9  2  0
  1  2  1  0
  1  3  1  0
  1  4  1  0
  6  7  1  0
  6  8  1  0
 10 14  1  0
 14 15  2  0
 15 17  1  0
 17 18  2  0
 18 20  1  0
 20 14  1  0
 10 11  1  0
 10 12  1  0
 10 13  1  0
 15 16  1  0
 18 19  1  0
 20 21  1  0
M  END
>  <PDB_ID>  (280) 
pdb5c9l

>  <RESIDUE_NAME>  (280) 
GLN   HID

>  <FRAG_NAME>  (280) 
ACEM   MIMD

>  <FRAG_ATOM_NUM>  (280) 
fragi: 9  fragj: 12

>  <atom.prop.CHAIN_ID>  (280) 
A A A A A A A A A Z Z Z Z Z Z Z Z Z Z Z Z

>  <atom.prop.IS_HEAVY_ATOM>  (280) 
1 0 0 0 1 1 0 0 1 1 0 0 0 1 1 0 1 1 0 1 0

>  <DIFUSE_FUNC_ATOM>  (280) 
n/a

>  <FINAL_SINGLE_POINT_ENERGY>  (280) 
0

>  <NONCOV_INTER_ENERGY_QM>  (280) 
0

>  <FF_Energy>  (280) 
5.75

>  <QM_Energy>  (280) 
16.41

>  <source>  (280) 
ACEM_MIMD

>  <Index>  (280) 
34961

$$$$
ACEM-pdb5cg0-F-ASN-377:MIMD-pdb5cg0-F-HID-380
     RDKit          3D

 21 20  0  0  0  0  0  0  0  0999 V2000
   -4.6256    4.3242   -0.6400 C   0  0  0  0  0  0  0  0  0  0  0  0
   -5.4924    4.2567   -0.1542 H   0  0  0  0  0  0  0  0  0  0  0  0
   -4.7522    4.1019   -1.6023 H   0  0  0  0  0  0  0  0  0  0  0  0
   -4.2725    5.3530   -0.5698 H   0  0  0  0  0  0  0  0  0  0  0  0
   -3.6518    3.3256   -0.0354 C   0  0  0  0  0  0  0  0  0  0  0  0
   -3.6232    2.1238   -0.5908 N   0  0  0  0  0  0  0  0  0  0  0  0
   -4.2180    1.9153   -1.3693 H   0  0  0  0  0  0  0  0  0  0  0  0
   -3.0069    1.4191   -0.2353 H   0  0  0  0  0  0  0  0  0  0  0  0
   -2.9247    3.6323    0.9187 O   0  0  0  0  0  0  0  0  0  0  0  0
   -0.1741    2.6557   -0.0016 C   0  0  0  0  0  0  0  0  0  0  0  0
   -0.2118    2.9779    0.9507 H   0  0  0  0  0  0  0  0  0  0  0  0
   -1.0482    2.8797   -0.4482 H   0  0  0  0  0  0  0  0  0  0  0  0
    0.6272    3.1835   -0.5187 H   0  0  0  0  0  0  0  0  0  0  0  0
   -0.0163    1.1668    0.0084 C   0  0  0  0  0  0  0  0  0  0  0  0
    1.0908    0.3891   -0.0000 C   0  0  0  0  0  0  0  0  0  0  0  0
    2.0361    0.7035    0.0006 H   0  0  0  0  0  0  0  0  0  0  0  0
    0.6679   -0.9172   -0.0083 N   0  0  0  0  0  0  0  0  0  0  0  0
   -0.6516   -0.9422   -0.0001 C   0  0  0  0  0  0  0  0  0  0  0  0
   -1.2189   -1.7611    0.0064 H   0  0  0  0  0  0  0  0  0  0  0  0
   -1.0908    0.3034   -0.0000 N   0  0  0  0  0  0  0  0  0  0  0  0
   -2.0522    0.5802   -0.0059 H   0  0  0  0  0  0  0  0  0  0  0  0
  1  5  1  0
  5  6  1  0
  5  9  2  0
  1  2  1  0
  1  3  1  0
  1  4  1  0
  6  7  1  0
  6  8  1  0
 10 14  1  0
 14 15  2  0
 15 17  1  0
 17 18  2  0
 18 20  1  0
 20 14  1  0
 10 11  1  0
 10 12  1  0
 10 13  1  0
 15 16  1  0
 18 19  1  0
 20 21  1  0
M  END
>  <PDB_ID>  (281) 
pdb5cg0

>  <RESIDUE_NAME>  (281) 
ASN   HID

>  <FRAG_NAME>  (281) 
ACEM   MIMD

>  <FRAG_ATOM_NUM>  (281) 
fragi: 9  fragj: 12

>  <atom.prop.CHAIN_ID>  (281) 
A A A A A A A A A Z Z Z Z Z Z Z Z Z Z Z Z

>  <atom.prop.IS_HEAVY_ATOM>  (281) 
1 0 0 0 1 1 0 0 1 1 0 0 0 1 1 0 1 1 0 1 0

>  <DIFUSE_FUNC_ATOM>  (281) 
n/a

>  <FINAL_SINGLE_POINT_ENERGY>  (281) 
0

>  <NONCOV_INTER_ENERGY_QM>  (281) 
0

>  <FF_Energy>  (281) 
4.65

>  <QM_Energy>  (281) 
10.55

>  <source>  (281) 
ACEM_MIMD

>  <Index>  (281) 
35114

$$$$
ACEM-pdb5cos-C-GLN-55:MIMD-pdb5cos-C-HID-21
     RDKit          3D

 21 20  0  0  0  0  0  0  0  0999 V2000
   -5.5088   -1.2813   -0.2672 C   0  0  0  0  0  0  0  0  0  0  0  0
   -5.9621   -0.4810   -0.6680 H   0  0  0  0  0  0  0  0  0  0  0  0
   -6.0547   -1.6098    0.5086 H   0  0  0  0  0  0  0  0  0  0  0  0
   -5.4856   -2.0684   -1.0209 H   0  0  0  0  0  0  0  0  0  0  0  0
   -4.1436   -0.8739    0.2292 C   0  0  0  0  0  0  0  0  0  0  0  0
   -3.6508    0.2645   -0.2580 N   0  0  0  0  0  0  0  0  0  0  0  0
   -2.7431    0.6110    0.0407 H   0  0  0  0  0  0  0  0  0  0  0  0
   -4.2024    0.7852   -0.9372 H   0  0  0  0  0  0  0  0  0  0  0  0
   -3.5258   -1.5811    1.0456 O   0  0  0  0  0  0  0  0  0  0  0  0
   -0.1812    2.6503   -0.0380 C   0  0  0  0  0  0  0  0  0  0  0  0
   -1.0748    2.8743   -0.4434 H   0  0  0  0  0  0  0  0  0  0  0  0
    0.5400    3.0515   -0.6130 H   0  0  0  0  0  0  0  0  0  0  0  0
   -0.1233    3.0870    0.9591 H   0  0  0  0  0  0  0  0  0  0  0  0
   -0.0193    1.1671   -0.0471 C   0  0  0  0  0  0  0  0  0  0  0  0
    1.0941    0.3876    0.0000 C   0  0  0  0  0  0  0  0  0  0  0  0
    2.0366    0.7052    0.0108 H   0  0  0  0  0  0  0  0  0  0  0  0
    0.6712   -0.9187    0.0306 N   0  0  0  0  0  0  0  0  0  0  0  0
   -0.6519   -0.9423    0.0164 C   0  0  0  0  0  0  0  0  0  0  0  0
   -1.2188   -1.7601    0.0197 H   0  0  0  0  0  0  0  0  0  0  0  0
   -1.0941    0.3064   -0.0000 N   0  0  0  0  0  0  0  0  0  0  0  0
   -2.0539    0.5812    0.0176 H   0  0  0  0  0  0  0  0  0  0  0  0
  1  5  1  0
  5  6  1  0
  5  9  2  0
  1  2  1  0
  1  3  1  0
  1  4  1  0
  6  7  1  0
  6  8  1  0
 10 14  1  0
 14 15  2  0
 15 17  1  0
 17 18  2  0
 18 20  1  0
 20 14  1  0
 10 11  1  0
 10 12  1  0
 10 13  1  0
 15 16  1  0
 18 19  1  0
 20 21  1  0
M  END
>  <PDB_ID>  (282) 
pdb5cos

>  <RESIDUE_NAME>  (282) 
GLN   HID

>  <FRAG_NAME>  (282) 
ACEM   MIMD

>  <FRAG_ATOM_NUM>  (282) 
fragi: 9  fragj: 12

>  <atom.prop.CHAIN_ID>  (282) 
A A A A A A A A A Z Z Z Z Z Z Z Z Z Z Z Z

>  <atom.prop.IS_HEAVY_ATOM>  (282) 
1 0 0 0 1 1 0 0 1 1 0 0 0 1 1 0 1 1 0 1 0

>  <DIFUSE_FUNC_ATOM>  (282) 
n/a

>  <FINAL_SINGLE_POINT_ENERGY>  (282) 
0

>  <NONCOV_INTER_ENERGY_QM>  (282) 
0

>  <FF_Energy>  (282) 
31.43

>  <QM_Energy>  (282) 
80.59

>  <source>  (282) 
ACEM_MIMD

>  <Index>  (282) 
35212

$$$$
ACEM-pdb5cos-A-GLN-55:MIMD-pdb5cos-A-HID-21
     RDKit          3D

 21 20  0  0  0  0  0  0  0  0999 V2000
   -5.9615   -0.0792   -1.1310 C   0  0  0  0  0  0  0  0  0  0  0  0
   -6.0296    0.8220   -1.5521 H   0  0  0  0  0  0  0  0  0  0  0  0
   -6.7345   -0.2296   -0.5200 H   0  0  0  0  0  0  0  0  0  0  0  0
   -5.9827   -0.8356   -1.9156 H   0  0  0  0  0  0  0  0  0  0  0  0
   -4.6815   -0.1393   -0.3189 C   0  0  0  0  0  0  0  0  0  0  0  0
   -3.8783    0.9193   -0.3994 N   0  0  0  0  0  0  0  0  0  0  0  0
   -3.0108    0.9562    0.1281 H   0  0  0  0  0  0  0  0  0  0  0  0
   -4.1495    1.6948   -1.0002 H   0  0  0  0  0  0  0  0  0  0  0  0
   -4.4211   -1.1182    0.3790 O   0  0  0  0  0  0  0  0  0  0  0  0
   -0.1711    2.6492   -0.0130 C   0  0  0  0  0  0  0  0  0  0  0  0
   -1.0541    2.8816   -0.4236 H   0  0  0  0  0  0  0  0  0  0  0  0
    0.5630    3.0552   -0.5588 H   0  0  0  0  0  0  0  0  0  0  0  0
   -0.1295    3.0556    0.9975 H   0  0  0  0  0  0  0  0  0  0  0  0
   -0.0137    1.1649   -0.0365 C   0  0  0  0  0  0  0  0  0  0  0  0
    1.0905    0.3876    0.0000 C   0  0  0  0  0  0  0  0  0  0  0  0
    2.0370    0.7010    0.0120 H   0  0  0  0  0  0  0  0  0  0  0  0
    0.6665   -0.9170    0.0187 N   0  0  0  0  0  0  0  0  0  0  0  0
   -0.6528   -0.9412    0.0178 C   0  0  0  0  0  0  0  0  0  0  0  0
   -1.2215   -1.7587    0.0302 H   0  0  0  0  0  0  0  0  0  0  0  0
   -1.0905    0.3056   -0.0000 N   0  0  0  0  0  0  0  0  0  0  0  0
   -2.0497    0.5843    0.0102 H   0  0  0  0  0  0  0  0  0  0  0  0
  1  5  1  0
  5  6  1  0
  5  9  2  0
  1  2  1  0
  1  3  1  0
  1  4  1  0
  6  7  1  0
  6  8  1  0
 10 14  1  0
 14 15  2  0
 15 17  1  0
 17 18  2  0
 18 20  1  0
 20 14  1  0
 10 11  1  0
 10 12  1  0
 10 13  1  0
 15 16  1  0
 18 19  1  0
 20 21  1  0
M  END
>  <PDB_ID>  (283) 
pdb5cos

>  <RESIDUE_NAME>  (283) 
GLN   HID

>  <FRAG_NAME>  (283) 
ACEM   MIMD

>  <FRAG_ATOM_NUM>  (283) 
fragi: 9  fragj: 12

>  <atom.prop.CHAIN_ID>  (283) 
A A A A A A A A A Z Z Z Z Z Z Z Z Z Z Z Z

>  <atom.prop.IS_HEAVY_ATOM>  (283) 
1 0 0 0 1 1 0 0 1 1 0 0 0 1 1 0 1 1 0 1 0

>  <DIFUSE_FUNC_ATOM>  (283) 
n/a

>  <FINAL_SINGLE_POINT_ENERGY>  (283) 
0

>  <NONCOV_INTER_ENERGY_QM>  (283) 
0

>  <FF_Energy>  (283) 
8.78

>  <QM_Energy>  (283) 
22.8

>  <source>  (283) 
ACEM_MIMD

>  <Index>  (283) 
35213

$$$$
ACEM-pdb5d55-B-ASN-7:MIMD-pdb5d55-A-HID-140
     RDKit          3D

 21 20  0  0  0  0  0  0  0  0999 V2000
   -5.4521    3.0708    0.6417 C   0  0  0  0  0  0  0  0  0  0  0  0
   -5.1180    4.0060    0.6673 H   0  0  0  0  0  0  0  0  0  0  0  0
   -6.2038    2.9505    1.2801 H   0  0  0  0  0  0  0  0  0  0  0  0
   -5.8188    2.8637   -0.3636 H   0  0  0  0  0  0  0  0  0  0  0  0
   -4.3172    2.1386    1.0449 C   0  0  0  0  0  0  0  0  0  0  0  0
   -3.3411    1.9825    0.1601 N   0  0  0  0  0  0  0  0  0  0  0  0
   -3.3757    2.4705   -0.7139 H   0  0  0  0  0  0  0  0  0  0  0  0
   -2.5702    1.3793    0.3631 H   0  0  0  0  0  0  0  0  0  0  0  0
   -4.3033    1.5936    2.1577 O   0  0  0  0  0  0  0  0  0  0  0  0
   -0.1856    2.6559   -0.0103 C   0  0  0  0  0  0  0  0  0  0  0  0
   -0.9484    2.8969   -0.6172 H   0  0  0  0  0  0  0  0  0  0  0  0
    0.6557    3.0727   -0.3659 H   0  0  0  0  0  0  0  0  0  0  0  0
   -0.3848    3.0596    0.9824 H   0  0  0  0  0  0  0  0  0  0  0  0
   -0.0199    1.1679   -0.0249 C   0  0  0  0  0  0  0  0  0  0  0  0
    1.0912    0.3916    0.0000 C   0  0  0  0  0  0  0  0  0  0  0  0
    2.0348    0.7080    0.0038 H   0  0  0  0  0  0  0  0  0  0  0  0
    0.6699   -0.9177    0.0208 N   0  0  0  0  0  0  0  0  0  0  0  0
   -0.6501   -0.9445    0.0041 C   0  0  0  0  0  0  0  0  0  0  0  0
   -1.2169   -1.7624   -0.0032 H   0  0  0  0  0  0  0  0  0  0  0  0
   -1.0912    0.3028   -0.0000 N   0  0  0  0  0  0  0  0  0  0  0  0
   -2.0536    0.5760    0.0129 H   0  0  0  0  0  0  0  0  0  0  0  0
  1  5  1  0
  5  6  1  0
  5  9  2  0
  1  2  1  0
  1  3  1  0
  1  4  1  0
  6  7  1  0
  6  8  1  0
 10 14  1  0
 14 15  2  0
 15 17  1  0
 17 18  2  0
 18 20  1  0
 20 14  1  0
 10 11  1  0
 10 12  1  0
 10 13  1  0
 15 16  1  0
 18 19  1  0
 20 21  1  0
M  END
>  <PDB_ID>  (284) 
pdb5d55

>  <RESIDUE_NAME>  (284) 
ASN   HID

>  <FRAG_NAME>  (284) 
ACEM   MIMD

>  <FRAG_ATOM_NUM>  (284) 
fragi: 9  fragj: 12

>  <atom.prop.CHAIN_ID>  (284) 
A A A A A A A A A Z Z Z Z Z Z Z Z Z Z Z Z

>  <atom.prop.IS_HEAVY_ATOM>  (284) 
1 0 0 0 1 1 0 0 1 1 0 0 0 1 1 0 1 1 0 1 0

>  <DIFUSE_FUNC_ATOM>  (284) 
n/a

>  <FINAL_SINGLE_POINT_ENERGY>  (284) 
0

>  <NONCOV_INTER_ENERGY_QM>  (284) 
0

>  <FF_Energy>  (284) 
10.47

>  <QM_Energy>  (284) 
26.12

>  <source>  (284) 
ACEM_MIMD

>  <Index>  (284) 
35495

$$$$
ACEM-pdb6del-A-GLN-671:MIMD-pdb6del-A-HID-589
     RDKit          3D

 21 20  0  0  0  0  0  0  0  0999 V2000
   -0.7290   -6.2190   -0.2673 C   0  0  0  0  0  0  0  0  0  0  0  0
    0.1035   -6.7713   -0.2329 H   0  0  0  0  0  0  0  0  0  0  0  0
   -1.2949   -6.5168   -1.0360 H   0  0  0  0  0  0  0  0  0  0  0  0
   -1.2864   -6.3614    0.6585 H   0  0  0  0  0  0  0  0  0  0  0  0
   -0.3290   -4.7654   -0.5011 C   0  0  0  0  0  0  0  0  0  0  0  0
   -1.3183   -3.8809   -0.4848 N   0  0  0  0  0  0  0  0  0  0  0  0
   -1.1277   -2.8889   -0.6189 H   0  0  0  0  0  0  0  0  0  0  0  0
   -2.2698   -4.2071   -0.3358 H   0  0  0  0  0  0  0  0  0  0  0  0
    0.8523   -4.4416   -0.6913 O   0  0  0  0  0  0  0  0  0  0  0  0
   -0.1750    2.6557    0.0033 C   0  0  0  0  0  0  0  0  0  0  0  0
    0.5918    3.0520    0.5162 H   0  0  0  0  0  0  0  0  0  0  0  0
   -1.0316    2.8782    0.4772 H   0  0  0  0  0  0  0  0  0  0  0  0
   -0.1992    3.0966   -0.9932 H   0  0  0  0  0  0  0  0  0  0  0  0
   -0.0161    1.1688   -0.0133 C   0  0  0  0  0  0  0  0  0  0  0  0
    1.0912    0.3882   -0.0000 C   0  0  0  0  0  0  0  0  0  0  0  0
    2.0367    0.7032    0.0056 H   0  0  0  0  0  0  0  0  0  0  0  0
    0.6695   -0.9188    0.0066 N   0  0  0  0  0  0  0  0  0  0  0  0
   -0.6533   -0.9410    0.0068 C   0  0  0  0  0  0  0  0  0  0  0  0
   -1.2195   -1.7599    0.0133 H   0  0  0  0  0  0  0  0  0  0  0  0
   -1.0912    0.3028    0.0000 N   0  0  0  0  0  0  0  0  0  0  0  0
   -2.0528    0.5815    0.0042 H   0  0  0  0  0  0  0  0  0  0  0  0
  1  5  1  0
  5  6  1  0
  5  9  2  0
  1  2  1  0
  1  3  1  0
  1  4  1  0
  6  7  1  0
  6  8  1  0
 10 14  1  0
 14 15  2  0
 15 17  1  0
 17 18  2  0
 18 20  1  0
 20 14  1  0
 10 11  1  0
 10 12  1  0
 10 13  1  0
 15 16  1  0
 18 19  1  0
 20 21  1  0
M  END
>  <PDB_ID>  (285) 
pdb6del

>  <RESIDUE_NAME>  (285) 
GLN   HID

>  <FRAG_NAME>  (285) 
ACEM   MIMD

>  <FRAG_ATOM_NUM>  (285) 
fragi: 9  fragj: 12

>  <atom.prop.CHAIN_ID>  (285) 
A A A A A A A A A Z Z Z Z Z Z Z Z Z Z Z Z

>  <atom.prop.IS_HEAVY_ATOM>  (285) 
1 0 0 0 1 1 0 0 1 1 0 0 0 1 1 0 1 1 0 1 0

>  <DIFUSE_FUNC_ATOM>  (285) 
n/a

>  <FINAL_SINGLE_POINT_ENERGY>  (285) 
0

>  <NONCOV_INTER_ENERGY_QM>  (285) 
0

>  <FF_Energy>  (285) 
6.51

>  <QM_Energy>  (285) 
13.13

>  <source>  (285) 
ACEM_MIMD

>  <Index>  (285) 
35626

$$$$
ACEM-pdb5dg2-A-ASN-37:MIMD-pdb5dg2-A-HID-48
     RDKit          3D

 21 20  0  0  0  0  0  0  0  0999 V2000
   -5.4593    2.7124    1.0510 C   0  0  0  0  0  0  0  0  0  0  0  0
   -6.3781    2.3543    1.2137 H   0  0  0  0  0  0  0  0  0  0  0  0
   -5.5003    3.4427    0.3694 H   0  0  0  0  0  0  0  0  0  0  0  0
   -5.0903    3.1388    1.9838 H   0  0  0  0  0  0  0  0  0  0  0  0
   -4.5914    1.5994    0.5209 C   0  0  0  0  0  0  0  0  0  0  0  0
   -3.2845    1.7609    0.6783 N   0  0  0  0  0  0  0  0  0  0  0  0
   -2.9238    2.5756    1.1299 H   0  0  0  0  0  0  0  0  0  0  0  0
   -2.6495    1.0592    0.3430 H   0  0  0  0  0  0  0  0  0  0  0  0
   -5.0737    0.6132   -0.0277 O   0  0  0  0  0  0  0  0  0  0  0  0
   -0.1671    2.6567    0.0090 C   0  0  0  0  0  0  0  0  0  0  0  0
   -0.9154    2.8900   -0.6294 H   0  0  0  0  0  0  0  0  0  0  0  0
    0.6857    3.0587   -0.3567 H   0  0  0  0  0  0  0  0  0  0  0  0
   -0.3791    3.1111    0.9768 H   0  0  0  0  0  0  0  0  0  0  0  0
   -0.0133    1.1685    0.0294 C   0  0  0  0  0  0  0  0  0  0  0  0
    1.0922    0.3863    0.0000 C   0  0  0  0  0  0  0  0  0  0  0  0
    2.0386    0.6983   -0.0080 H   0  0  0  0  0  0  0  0  0  0  0  0
    0.6681   -0.9220   -0.0160 N   0  0  0  0  0  0  0  0  0  0  0  0
   -0.6549   -0.9413   -0.0135 C   0  0  0  0  0  0  0  0  0  0  0  0
   -1.2245   -1.7570   -0.0194 H   0  0  0  0  0  0  0  0  0  0  0  0
   -1.0922    0.3086   -0.0000 N   0  0  0  0  0  0  0  0  0  0  0  0
   -2.0514    0.5865   -0.0106 H   0  0  0  0  0  0  0  0  0  0  0  0
  1  5  1  0
  5  6  1  0
  5  9  2  0
  1  2  1  0
  1  3  1  0
  1  4  1  0
  6  7  1  0
  6  8  1  0
 10 14  1  0
 14 15  2  0
 15 17  1  0
 17 18  2  0
 18 20  1  0
 20 14  1  0
 10 11  1  0
 10 12  1  0
 10 13  1  0
 15 16  1  0
 18 19  1  0
 20 21  1  0
M  END
>  <PDB_ID>  (286) 
pdb5dg2

>  <RESIDUE_NAME>  (286) 
ASN   HID

>  <FRAG_NAME>  (286) 
ACEM   MIMD

>  <FRAG_ATOM_NUM>  (286) 
fragi: 9  fragj: 12

>  <atom.prop.CHAIN_ID>  (286) 
A A A A A A A A A Z Z Z Z Z Z Z Z Z Z Z Z

>  <atom.prop.IS_HEAVY_ATOM>  (286) 
1 0 0 0 1 1 0 0 1 1 0 0 0 1 1 0 1 1 0 1 0

>  <DIFUSE_FUNC_ATOM>  (286) 
n/a

>  <FINAL_SINGLE_POINT_ENERGY>  (286) 
0

>  <NONCOV_INTER_ENERGY_QM>  (286) 
0

>  <FF_Energy>  (286) 
16.67

>  <QM_Energy>  (286) 
45.32

>  <source>  (286) 
ACEM_MIMD

>  <Index>  (286) 
35670

$$$$
ACEM-pdb5dgq-A-GLN-161:MIMD-pdb5dgq-A-HID-150
     RDKit          3D

 21 20  0  0  0  0  0  0  0  0999 V2000
   -6.0031   -0.4614    0.3678 C   0  0  0  0  0  0  0  0  0  0  0  0
   -6.1158   -1.4536    0.4456 H   0  0  0  0  0  0  0  0  0  0  0  0
   -6.1440   -0.1887   -0.5859 H   0  0  0  0  0  0  0  0  0  0  0  0
   -6.7774    0.0133    0.9706 H   0  0  0  0  0  0  0  0  0  0  0  0
   -4.6292   -0.0836    0.7960 C   0  0  0  0  0  0  0  0  0  0  0  0
   -3.9568    0.6897   -0.0133 N   0  0  0  0  0  0  0  0  0  0  0  0
   -3.0017    1.0117    0.2120 H   0  0  0  0  0  0  0  0  0  0  0  0
   -4.3810    0.9883   -0.8959 H   0  0  0  0  0  0  0  0  0  0  0  0
   -4.2021   -0.4335    1.8950 O   0  0  0  0  0  0  0  0  0  0  0  0
   -0.1555    2.7019    0.0400 C   0  0  0  0  0  0  0  0  0  0  0  0
    0.7656    3.0932    0.1453 H   0  0  0  0  0  0  0  0  0  0  0  0
   -0.6929    2.9249    0.8601 H   0  0  0  0  0  0  0  0  0  0  0  0
   -0.6326    3.1658   -0.8232 H   0  0  0  0  0  0  0  0  0  0  0  0
   -0.0132    1.1760   -0.0263 C   0  0  0  0  0  0  0  0  0  0  0  0
    1.1016    0.3898   -0.0000 C   0  0  0  0  0  0  0  0  0  0  0  0
    2.0429    0.6980    0.0137 H   0  0  0  0  0  0  0  0  0  0  0  0
    0.6697   -0.9303    0.0046 N   0  0  0  0  0  0  0  0  0  0  0  0
   -0.6565   -0.9500    0.0217 C   0  0  0  0  0  0  0  0  0  0  0  0
   -1.2285   -1.7605    0.0476 H   0  0  0  0  0  0  0  0  0  0  0  0
   -1.1016    0.3144    0.0000 N   0  0  0  0  0  0  0  0  0  0  0  0
   -2.0549    0.5878    0.0019 H   0  0  0  0  0  0  0  0  0  0  0  0
  1  5  1  0
  5  6  1  0
  5  9  2  0
  1  2  1  0
  1  3  1  0
  1  4  1  0
  6  7  1  0
  6  8  1  0
 10 14  1  0
 14 15  2  0
 15 17  1  0
 17 18  2  0
 18 20  1  0
 20 14  1  0
 10 11  1  0
 10 12  1  0
 10 13  1  0
 15 16  1  0
 18 19  1  0
 20 21  1  0
M  END
>  <PDB_ID>  (287) 
pdb5dgq

>  <RESIDUE_NAME>  (287) 
GLN   HID

>  <FRAG_NAME>  (287) 
ACEM   MIMD

>  <FRAG_ATOM_NUM>  (287) 
fragi: 9  fragj: 12

>  <atom.prop.CHAIN_ID>  (287) 
A A A A A A A A A Z Z Z Z Z Z Z Z Z Z Z Z

>  <atom.prop.IS_HEAVY_ATOM>  (287) 
1 0 0 0 1 1 0 0 1 1 0 0 0 1 1 0 1 1 0 1 0

>  <DIFUSE_FUNC_ATOM>  (287) 
n/a

>  <FINAL_SINGLE_POINT_ENERGY>  (287) 
0

>  <NONCOV_INTER_ENERGY_QM>  (287) 
0

>  <FF_Energy>  (287) 
9.02

>  <QM_Energy>  (287) 
22.03

>  <source>  (287) 
ACEM_MIMD

>  <Index>  (287) 
35679

$$$$
ACEM-pdb5dn9-A-GLN-287:MIMD-pdb5dn9-A-HID-311
     RDKit          3D

 21 20  0  0  0  0  0  0  0  0999 V2000
   -4.6484    3.4129    1.9458 C   0  0  0  0  0  0  0  0  0  0  0  0
   -4.2808    4.3072    2.0325 H   0  0  0  0  0  0  0  0  0  0  0  0
   -5.0383    3.1396    2.7906 H   0  0  0  0  0  0  0  0  0  0  0  0
   -5.4350    3.4337    1.1916 H   0  0  0  0  0  0  0  0  0  0  0  0
   -3.4977    2.4726    1.6485 C   0  0  0  0  0  0  0  0  0  0  0  0
   -3.5761    1.7391    0.5457 N   0  0  0  0  0  0  0  0  0  0  0  0
   -4.2612    1.8093    0.0313 H   0  0  0  0  0  0  0  0  0  0  0  0
   -2.9407    1.1950    0.3459 H   0  0  0  0  0  0  0  0  0  0  0  0
   -2.5527    2.3880    2.4275 O   0  0  0  0  0  0  0  0  0  0  0  0
   -0.1797    2.6480   -0.0234 C   0  0  0  0  0  0  0  0  0  0  0  0
   -0.5448    2.9226    0.8327 H   0  0  0  0  0  0  0  0  0  0  0  0
   -0.8025    2.8678   -0.7338 H   0  0  0  0  0  0  0  0  0  0  0  0
    0.7546    3.1824   -0.1962 H   0  0  0  0  0  0  0  0  0  0  0  0
   -0.0174    1.1663    0.0021 C   0  0  0  0  0  0  0  0  0  0  0  0
    1.0925    0.3882   -0.0000 C   0  0  0  0  0  0  0  0  0  0  0  0
    1.9743    0.6827    0.0020 H   0  0  0  0  0  0  0  0  0  0  0  0
    0.6692   -0.9184    0.0078 N   0  0  0  0  0  0  0  0  0  0  0  0
   -0.6518   -0.9386   -0.0098 C   0  0  0  0  0  0  0  0  0  0  0  0
   -1.1819   -1.7032    0.0005 H   0  0  0  0  0  0  0  0  0  0  0  0
   -1.0925    0.3026   -0.0000 N   0  0  0  0  0  0  0  0  0  0  0  0
   -1.9193    0.5369   -0.0100 H   0  0  0  0  0  0  0  0  0  0  0  0
  1  5  1  0
  5  6  1  0
  5  9  2  0
  1  2  1  0
  1  3  1  0
  1  4  1  0
  6  7  1  0
  6  8  1  0
 10 14  1  0
 14 15  2  0
 15 17  1  0
 17 18  2  0
 18 20  1  0
 20 14  1  0
 10 11  1  0
 10 12  1  0
 10 13  1  0
 15 16  1  0
 18 19  1  0
 20 21  1  0
M  END
>  <PDB_ID>  (288) 
pdb5dn9

>  <RESIDUE_NAME>  (288) 
GLN   HID

>  <FRAG_NAME>  (288) 
ACEM   MIMD

>  <FRAG_ATOM_NUM>  (288) 
fragi: 9  fragj: 12

>  <atom.prop.CHAIN_ID>  (288) 
A A A A A A A A A Z Z Z Z Z Z Z Z Z Z Z Z

>  <atom.prop.IS_HEAVY_ATOM>  (288) 
1 0 0 0 1 1 0 0 1 1 0 0 0 1 1 0 1 1 0 1 0

>  <DIFUSE_FUNC_ATOM>  (288) 
n/a

>  <FINAL_SINGLE_POINT_ENERGY>  (288) 
0

>  <NONCOV_INTER_ENERGY_QM>  (288) 
0

>  <FF_Energy>  (288) 
5.4

>  <QM_Energy>  (288) 
11.08

>  <source>  (288) 
ACEM_MIMD

>  <Index>  (288) 
35804

$$$$
ACEM-pdb5dn9-B-GLN-287:MIMD-pdb5dn9-B-HID-311
     RDKit          3D

 21 20  0  0  0  0  0  0  0  0999 V2000
   -4.6126    3.2859    2.1566 C   0  0  0  0  0  0  0  0  0  0  0  0
   -4.2483    4.1683    2.3298 H   0  0  0  0  0  0  0  0  0  0  0  0
   -5.0111    2.9331    2.9681 H   0  0  0  0  0  0  0  0  0  0  0  0
   -5.3905    3.3730    1.3979 H   0  0  0  0  0  0  0  0  0  0  0  0
   -3.4619    2.3842    1.7853 C   0  0  0  0  0  0  0  0  0  0  0  0
   -3.5471    1.7278    0.6359 N   0  0  0  0  0  0  0  0  0  0  0  0
   -2.9100    1.2046    0.3916 H   0  0  0  0  0  0  0  0  0  0  0  0
   -4.2389    1.8257    0.1348 H   0  0  0  0  0  0  0  0  0  0  0  0
   -2.5111    2.2652    2.5418 O   0  0  0  0  0  0  0  0  0  0  0  0
   -0.1816    2.6393    0.0222 C   0  0  0  0  0  0  0  0  0  0  0  0
   -0.5733    2.8929    0.8726 H   0  0  0  0  0  0  0  0  0  0  0  0
   -0.7777    2.8817   -0.7042 H   0  0  0  0  0  0  0  0  0  0  0  0
    0.7647    3.1653   -0.1042 H   0  0  0  0  0  0  0  0  0  0  0  0
   -0.0196    1.1631    0.0116 C   0  0  0  0  0  0  0  0  0  0  0  0
    1.0901    0.3909    0.0000 C   0  0  0  0  0  0  0  0  0  0  0  0
    1.9712    0.6882    0.0005 H   0  0  0  0  0  0  0  0  0  0  0  0
    0.6680   -0.9148   -0.0117 N   0  0  0  0  0  0  0  0  0  0  0  0
   -0.6484   -0.9379    0.0001 C   0  0  0  0  0  0  0  0  0  0  0  0
   -1.1778   -1.7024   -0.0099 H   0  0  0  0  0  0  0  0  0  0  0  0
   -1.0901    0.2987   -0.0000 N   0  0  0  0  0  0  0  0  0  0  0  0
   -1.9174    0.5315    0.0085 H   0  0  0  0  0  0  0  0  0  0  0  0
  1  5  1  0
  5  6  1  0
  5  9  2  0
  1  2  1  0
  1  3  1  0
  1  4  1  0
  6  7  1  0
  6  8  1  0
 10 14  1  0
 14 15  2  0
 15 17  1  0
 17 18  2  0
 18 20  1  0
 20 14  1  0
 10 11  1  0
 10 12  1  0
 10 13  1  0
 15 16  1  0
 18 19  1  0
 20 21  1  0
M  END
>  <PDB_ID>  (289) 
pdb5dn9

>  <RESIDUE_NAME>  (289) 
GLN   HID

>  <FRAG_NAME>  (289) 
ACEM   MIMD

>  <FRAG_ATOM_NUM>  (289) 
fragi: 9  fragj: 12

>  <atom.prop.CHAIN_ID>  (289) 
A A A A A A A A A Z Z Z Z Z Z Z Z Z Z Z Z

>  <atom.prop.IS_HEAVY_ATOM>  (289) 
1 0 0 0 1 1 0 0 1 1 0 0 0 1 1 0 1 1 0 1 0

>  <DIFUSE_FUNC_ATOM>  (289) 
n/a

>  <FINAL_SINGLE_POINT_ENERGY>  (289) 
0

>  <NONCOV_INTER_ENERGY_QM>  (289) 
0

>  <FF_Energy>  (289) 
6.02

>  <QM_Energy>  (289) 
11.4

>  <source>  (289) 
ACEM_MIMD

>  <Index>  (289) 
35807

$$$$
ACEM-pdb5dus-A-ASN-35:MIMD-pdb5dus-A-HID-92
     RDKit          3D

 21 20  0  0  0  0  0  0  0  0999 V2000
   -2.7609    0.5936   -3.2184 C   0  0  0  0  0  0  0  0  0  0  0  0
   -2.3115   -0.2510   -3.4881 H   0  0  0  0  0  0  0  0  0  0  0  0
   -2.1647    1.1332   -2.6338 H   0  0  0  0  0  0  0  0  0  0  0  0
   -2.9688    1.1719   -4.1187 H   0  0  0  0  0  0  0  0  0  0  0  0
   -4.0175    0.2615   -2.4654 C   0  0  0  0  0  0  0  0  0  0  0  0
   -3.9126    0.1209   -1.1513 N   0  0  0  0  0  0  0  0  0  0  0  0
   -3.0200    0.2436   -0.7100 H   0  0  0  0  0  0  0  0  0  0  0  0
   -4.7136   -0.1049   -0.6015 H   0  0  0  0  0  0  0  0  0  0  0  0
   -5.0905    0.1624   -3.0669 O   0  0  0  0  0  0  0  0  0  0  0  0
   -0.1758    2.6543    0.0065 C   0  0  0  0  0  0  0  0  0  0  0  0
    0.5374    3.0571    0.5858 H   0  0  0  0  0  0  0  0  0  0  0  0
   -1.0745    2.8813    0.3899 H   0  0  0  0  0  0  0  0  0  0  0  0
   -0.1007    3.0790   -0.9946 H   0  0  0  0  0  0  0  0  0  0  0  0
   -0.0166    1.1657    0.0260 C   0  0  0  0  0  0  0  0  0  0  0  0
    1.0924    0.3898    0.0000 C   0  0  0  0  0  0  0  0  0  0  0  0
    2.0369    0.7029   -0.0044 H   0  0  0  0  0  0  0  0  0  0  0  0
    0.6682   -0.9193   -0.0183 N   0  0  0  0  0  0  0  0  0  0  0  0
   -0.6516   -0.9426   -0.0077 C   0  0  0  0  0  0  0  0  0  0  0  0
   -1.2206   -1.7592   -0.0048 H   0  0  0  0  0  0  0  0  0  0  0  0
   -1.0924    0.3063   -0.0000 N   0  0  0  0  0  0  0  0  0  0  0  0
   -2.0518    0.5817   -0.0116 H   0  0  0  0  0  0  0  0  0  0  0  0
  1  5  1  0
  5  6  1  0
  5  9  2  0
  1  2  1  0
  1  3  1  0
  1  4  1  0
  6  7  1  0
  6  8  1  0
 10 14  1  0
 14 15  2  0
 15 17  1  0
 17 18  2  0
 18 20  1  0
 20 14  1  0
 10 11  1  0
 10 12  1  0
 10 13  1  0
 15 16  1  0
 18 19  1  0
 20 21  1  0
M  END
>  <PDB_ID>  (290) 
pdb5dus

>  <RESIDUE_NAME>  (290) 
ASN   HID

>  <FRAG_NAME>  (290) 
ACEM   MIMD

>  <FRAG_ATOM_NUM>  (290) 
fragi: 9  fragj: 12

>  <atom.prop.CHAIN_ID>  (290) 
A A A A A A A A A Z Z Z Z Z Z Z Z Z Z Z Z

>  <atom.prop.IS_HEAVY_ATOM>  (290) 
1 0 0 0 1 1 0 0 1 1 0 0 0 1 1 0 1 1 0 1 0

>  <DIFUSE_FUNC_ATOM>  (290) 
n/a

>  <FINAL_SINGLE_POINT_ENERGY>  (290) 
0

>  <NONCOV_INTER_ENERGY_QM>  (290) 
0

>  <FF_Energy>  (290) 
6.29

>  <QM_Energy>  (290) 
11.85

>  <source>  (290) 
ACEM_MIMD

>  <Index>  (290) 
35900

$$$$
ACEM-pdb5eo2-A-ASN-138:MIMD-pdb5eo2-A-HID-134
     RDKit          3D

 21 20  0  0  0  0  0  0  0  0999 V2000
    5.1580   -0.0159    0.3355 C   0  0  0  0  0  0  0  0  0  0  0  0
    4.5022    0.3405   -0.3242 H   0  0  0  0  0  0  0  0  0  0  0  0
    5.5675   -0.8573   -0.0058 H   0  0  0  0  0  0  0  0  0  0  0  0
    5.9489    0.7224    0.4688 H   0  0  0  0  0  0  0  0  0  0  0  0
    4.4250   -0.3242    1.6283 C   0  0  0  0  0  0  0  0  0  0  0  0
    3.1166   -0.4380    1.5776 N   0  0  0  0  0  0  0  0  0  0  0  0
    2.6458   -0.3242    0.6920 H   0  0  0  0  0  0  0  0  0  0  0  0
    2.5855   -0.6346    2.3975 H   0  0  0  0  0  0  0  0  0  0  0  0
    5.0582   -0.5214    2.6640 O   0  0  0  0  0  0  0  0  0  0  0  0
   -0.2191    2.6601   -0.0279 C   0  0  0  0  0  0  0  0  0  0  0  0
   -0.5662    2.9464    0.8823 H   0  0  0  0  0  0  0  0  0  0  0  0
   -0.9443    2.8747   -0.7051 H   0  0  0  0  0  0  0  0  0  0  0  0
    0.6516    3.2721   -0.2635 H   0  0  0  0  0  0  0  0  0  0  0  0
   -0.0144    1.1689   -0.0099 C   0  0  0  0  0  0  0  0  0  0  0  0
    1.0875    0.3822   -0.0000 C   0  0  0  0  0  0  0  0  0  0  0  0
    2.0364    0.6975    0.0047 H   0  0  0  0  0  0  0  0  0  0  0  0
    0.6665   -0.9197    0.0044 N   0  0  0  0  0  0  0  0  0  0  0  0
   -0.6521   -0.9392    0.0055 C   0  0  0  0  0  0  0  0  0  0  0  0
   -1.2234   -1.7554    0.0113 H   0  0  0  0  0  0  0  0  0  0  0  0
   -1.0875    0.3078    0.0000 N   0  0  0  0  0  0  0  0  0  0  0  0
   -2.0496    0.5852    0.0013 H   0  0  0  0  0  0  0  0  0  0  0  0
  1  5  1  0
  5  6  1  0
  5  9  2  0
  1  2  1  0
  1  3  1  0
  1  4  1  0
  6  7  1  0
  6  8  1  0
 10 14  1  0
 14 15  2  0
 15 17  1  0
 17 18  2  0
 18 20  1  0
 20 14  1  0
 10 11  1  0
 10 12  1  0
 10 13  1  0
 15 16  1  0
 18 19  1  0
 20 21  1  0
M  END
>  <PDB_ID>  (291) 
pdb5eo2

>  <RESIDUE_NAME>  (291) 
ASN   HID

>  <FRAG_NAME>  (291) 
ACEM   MIMD

>  <FRAG_ATOM_NUM>  (291) 
fragi: 9  fragj: 12

>  <atom.prop.CHAIN_ID>  (291) 
A A A A A A A A A Z Z Z Z Z Z Z Z Z Z Z Z

>  <atom.prop.IS_HEAVY_ATOM>  (291) 
1 0 0 0 1 1 0 0 1 1 0 0 0 1 1 0 1 1 0 1 0

>  <DIFUSE_FUNC_ATOM>  (291) 
n/a

>  <FINAL_SINGLE_POINT_ENERGY>  (291) 
0

>  <NONCOV_INTER_ENERGY_QM>  (291) 
0

>  <FF_Energy>  (291) 
4.49

>  <QM_Energy>  (291) 
10.03

>  <source>  (291) 
ACEM_MIMD

>  <Index>  (291) 
36381

$$$$
ACEM-pdb5f4z-A-GLN-172:MIMD-pdb5f4z-A-HID-196
     RDKit          3D

 21 20  0  0  0  0  0  0  0  0999 V2000
   -3.4632    2.0580    2.0853 C   0  0  0  0  0  0  0  0  0  0  0  0
   -2.7596    2.1542    1.3746 H   0  0  0  0  0  0  0  0  0  0  0  0
   -3.0296    1.7133    2.9236 H   0  0  0  0  0  0  0  0  0  0  0  0
   -3.8699    3.0470    2.2962 H   0  0  0  0  0  0  0  0  0  0  0  0
   -4.4933    1.0442    1.6162 C   0  0  0  0  0  0  0  0  0  0  0  0
   -4.1209    0.2543    0.6064 N   0  0  0  0  0  0  0  0  0  0  0  0
   -4.7512   -0.4571    0.2472 H   0  0  0  0  0  0  0  0  0  0  0  0
   -3.1964    0.3779    0.2035 H   0  0  0  0  0  0  0  0  0  0  0  0
   -5.6027    0.9529    2.1603 O   0  0  0  0  0  0  0  0  0  0  0  0
   -0.1868    2.6581    0.0246 C   0  0  0  0  0  0  0  0  0  0  0  0
    0.6722    3.0704    0.3503 H   0  0  0  0  0  0  0  0  0  0  0  0
   -0.9171    2.8884    0.6779 H   0  0  0  0  0  0  0  0  0  0  0  0
   -0.4366    3.0868   -0.9459 H   0  0  0  0  0  0  0  0  0  0  0  0
   -0.0200    1.1696    0.0083 C   0  0  0  0  0  0  0  0  0  0  0  0
    1.0917    0.3937    0.0000 C   0  0  0  0  0  0  0  0  0  0  0  0
    2.0349    0.7088   -0.0059 H   0  0  0  0  0  0  0  0  0  0  0  0
    0.6703   -0.9193    0.0024 N   0  0  0  0  0  0  0  0  0  0  0  0
   -0.6503   -0.9441   -0.0106 C   0  0  0  0  0  0  0  0  0  0  0  0
   -1.2165   -1.7643   -0.0246 H   0  0  0  0  0  0  0  0  0  0  0  0
   -1.0917    0.3001   -0.0000 N   0  0  0  0  0  0  0  0  0  0  0  0
   -2.0540    0.5746    0.0011 H   0  0  0  0  0  0  0  0  0  0  0  0
  1  5  1  0
  5  6  1  0
  5  9  2  0
  1  2  1  0
  1  3  1  0
  1  4  1  0
  6  7  1  0
  6  8  1  0
 10 14  1  0
 14 15  2  0
 15 17  1  0
 17 18  2  0
 18 20  1  0
 20 14  1  0
 10 11  1  0
 10 12  1  0
 10 13  1  0
 15 16  1  0
 18 19  1  0
 20 21  1  0
M  END
>  <PDB_ID>  (292) 
pdb5f4z

>  <RESIDUE_NAME>  (292) 
GLN   HID

>  <FRAG_NAME>  (292) 
ACEM   MIMD

>  <FRAG_ATOM_NUM>  (292) 
fragi: 9  fragj: 12

>  <atom.prop.CHAIN_ID>  (292) 
A A A A A A A A A Z Z Z Z Z Z Z Z Z Z Z Z

>  <atom.prop.IS_HEAVY_ATOM>  (292) 
1 0 0 0 1 1 0 0 1 1 0 0 0 1 1 0 1 1 0 1 0

>  <DIFUSE_FUNC_ATOM>  (292) 
n/a

>  <FINAL_SINGLE_POINT_ENERGY>  (292) 
0

>  <NONCOV_INTER_ENERGY_QM>  (292) 
0

>  <FF_Energy>  (292) 
7.62

>  <QM_Energy>  (292) 
15.29

>  <source>  (292) 
ACEM_MIMD

>  <Index>  (292) 
36664

$$$$
ACEM-pdb5f4z-B-GLN-172:MIMD-pdb5f4z-B-HID-196
     RDKit          3D

 21 20  0  0  0  0  0  0  0  0999 V2000
   -3.4338    2.0236    2.1428 C   0  0  0  0  0  0  0  0  0  0  0  0
   -2.7161    2.1213    1.4476 H   0  0  0  0  0  0  0  0  0  0  0  0
   -3.0124    1.7153    3.0013 H   0  0  0  0  0  0  0  0  0  0  0  0
   -3.8796    3.0035    2.3134 H   0  0  0  0  0  0  0  0  0  0  0  0
   -4.4174    0.9350    1.6701 C   0  0  0  0  0  0  0  0  0  0  0  0
   -3.9968    0.1638    0.6726 N   0  0  0  0  0  0  0  0  0  0  0  0
   -4.5852   -0.5821    0.3191 H   0  0  0  0  0  0  0  0  0  0  0  0
   -3.0787    0.3345    0.2719 H   0  0  0  0  0  0  0  0  0  0  0  0
   -5.5345    0.8051    2.1814 O   0  0  0  0  0  0  0  0  0  0  0  0
   -0.1713    2.6617    0.0093 C   0  0  0  0  0  0  0  0  0  0  0  0
    0.7045    3.0668    0.2971 H   0  0  0  0  0  0  0  0  0  0  0  0
   -0.8706    2.9001    0.6933 H   0  0  0  0  0  0  0  0  0  0  0  0
   -0.4591    3.0865   -0.9524 H   0  0  0  0  0  0  0  0  0  0  0  0
   -0.0163    1.1690   -0.0022 C   0  0  0  0  0  0  0  0  0  0  0  0
    1.0923    0.3893   -0.0000 C   0  0  0  0  0  0  0  0  0  0  0  0
    2.0373    0.7034   -0.0001 H   0  0  0  0  0  0  0  0  0  0  0  0
    0.6695   -0.9185    0.0032 N   0  0  0  0  0  0  0  0  0  0  0  0
   -0.6532   -0.9432   -0.0011 C   0  0  0  0  0  0  0  0  0  0  0  0
   -1.2194   -1.7617   -0.0037 H   0  0  0  0  0  0  0  0  0  0  0  0
   -1.0923    0.3033   -0.0000 N   0  0  0  0  0  0  0  0  0  0  0  0
   -2.0526    0.5810    0.0013 H   0  0  0  0  0  0  0  0  0  0  0  0
  1  5  1  0
  5  6  1  0
  5  9  2  0
  1  2  1  0
  1  3  1  0
  1  4  1  0
  6  7  1  0
  6  8  1  0
 10 14  1  0
 14 15  2  0
 15 17  1  0
 17 18  2  0
 18 20  1  0
 20 14  1  0
 10 11  1  0
 10 12  1  0
 10 13  1  0
 15 16  1  0
 18 19  1  0
 20 21  1  0
M  END
>  <PDB_ID>  (293) 
pdb5f4z

>  <RESIDUE_NAME>  (293) 
GLN   HID

>  <FRAG_NAME>  (293) 
ACEM   MIMD

>  <FRAG_ATOM_NUM>  (293) 
fragi: 9  fragj: 12

>  <atom.prop.CHAIN_ID>  (293) 
A A A A A A A A A Z Z Z Z Z Z Z Z Z Z Z Z

>  <atom.prop.IS_HEAVY_ATOM>  (293) 
1 0 0 0 1 1 0 0 1 1 0 0 0 1 1 0 1 1 0 1 0

>  <DIFUSE_FUNC_ATOM>  (293) 
n/a

>  <FINAL_SINGLE_POINT_ENERGY>  (293) 
0

>  <NONCOV_INTER_ENERGY_QM>  (293) 
0

>  <FF_Energy>  (293) 
9.17

>  <QM_Energy>  (293) 
20.04

>  <source>  (293) 
ACEM_MIMD

>  <Index>  (293) 
36665

$$$$
ACEM-pdb5f4z-C-GLN-172:MIMD-pdb5f4z-C-HID-196
     RDKit          3D

 21 20  0  0  0  0  0  0  0  0999 V2000
   -3.3174    1.8901    2.3703 C   0  0  0  0  0  0  0  0  0  0  0  0
   -2.6747    2.0112    1.6080 H   0  0  0  0  0  0  0  0  0  0  0  0
   -2.8107    1.5610    3.1724 H   0  0  0  0  0  0  0  0  0  0  0  0
   -3.7489    2.8613    2.6123 H   0  0  0  0  0  0  0  0  0  0  0  0
   -4.3403    0.8264    1.9743 C   0  0  0  0  0  0  0  0  0  0  0  0
   -4.0151    0.0509    0.9464 N   0  0  0  0  0  0  0  0  0  0  0  0
   -4.6394   -0.6867    0.6355 H   0  0  0  0  0  0  0  0  0  0  0  0
   -3.1276    0.2081    0.4735 H   0  0  0  0  0  0  0  0  0  0  0  0
   -5.4008    0.7059    2.5797 O   0  0  0  0  0  0  0  0  0  0  0  0
   -0.1726    2.6590   -0.0016 C   0  0  0  0  0  0  0  0  0  0  0  0
    0.7215    3.0726    0.2004 H   0  0  0  0  0  0  0  0  0  0  0  0
   -0.8138    2.9099    0.7306 H   0  0  0  0  0  0  0  0  0  0  0  0
   -0.5416    3.0674   -0.9424 H   0  0  0  0  0  0  0  0  0  0  0  0
   -0.0166    1.1685   -0.0054 C   0  0  0  0  0  0  0  0  0  0  0  0
    1.0917    0.3890   -0.0000 C   0  0  0  0  0  0  0  0  0  0  0  0
    2.0367    0.7034    0.0027 H   0  0  0  0  0  0  0  0  0  0  0  0
    0.6686   -0.9177    0.0022 N   0  0  0  0  0  0  0  0  0  0  0  0
   -0.6520   -0.9423    0.0031 C   0  0  0  0  0  0  0  0  0  0  0  0
   -1.2183   -1.7623    0.0069 H   0  0  0  0  0  0  0  0  0  0  0  0
   -1.0917    0.3025    0.0000 N   0  0  0  0  0  0  0  0  0  0  0  0
   -2.0523    0.5800    0.0006 H   0  0  0  0  0  0  0  0  0  0  0  0
  1  5  1  0
  5  6  1  0
  5  9  2  0
  1  2  1  0
  1  3  1  0
  1  4  1  0
  6  7  1  0
  6  8  1  0
 10 14  1  0
 14 15  2  0
 15 17  1  0
 17 18  2  0
 18 20  1  0
 20 14  1  0
 10 11  1  0
 10 12  1  0
 10 13  1  0
 15 16  1  0
 18 19  1  0
 20 21  1  0
M  END
>  <PDB_ID>  (294) 
pdb5f4z

>  <RESIDUE_NAME>  (294) 
GLN   HID

>  <FRAG_NAME>  (294) 
ACEM   MIMD

>  <FRAG_ATOM_NUM>  (294) 
fragi: 9  fragj: 12

>  <atom.prop.CHAIN_ID>  (294) 
A A A A A A A A A Z Z Z Z Z Z Z Z Z Z Z Z

>  <atom.prop.IS_HEAVY_ATOM>  (294) 
1 0 0 0 1 1 0 0 1 1 0 0 0 1 1 0 1 1 0 1 0

>  <DIFUSE_FUNC_ATOM>  (294) 
n/a

>  <FINAL_SINGLE_POINT_ENERGY>  (294) 
0

>  <NONCOV_INTER_ENERGY_QM>  (294) 
0

>  <FF_Energy>  (294) 
6.58

>  <QM_Energy>  (294) 
12.94

>  <source>  (294) 
ACEM_MIMD

>  <Index>  (294) 
36666

$$$$
ACEM-pdb5fdy-A-ASN-126:MIMD-pdb5fdy-A-HID-139
     RDKit          3D

 21 20  0  0  0  0  0  0  0  0999 V2000
   -2.9629   -3.4472   -0.7082 C   0  0  0  0  0  0  0  0  0  0  0  0
   -3.4797   -3.8767   -1.4449 H   0  0  0  0  0  0  0  0  0  0  0  0
   -2.7112   -2.5169   -0.9667 H   0  0  0  0  0  0  0  0  0  0  0  0
   -3.6017   -3.3962    0.1736 H   0  0  0  0  0  0  0  0  0  0  0  0
   -1.6973   -4.2454   -0.4743 C   0  0  0  0  0  0  0  0  0  0  0  0
   -0.7204   -3.6302    0.1833 N   0  0  0  0  0  0  0  0  0  0  0  0
   -0.8495   -2.6893    0.5002 H   0  0  0  0  0  0  0  0  0  0  0  0
    0.1406   -4.1046    0.3629 H   0  0  0  0  0  0  0  0  0  0  0  0
   -1.6009   -5.4055   -0.8721 O   0  0  0  0  0  0  0  0  0  0  0  0
   -0.1765    2.6559    0.0102 C   0  0  0  0  0  0  0  0  0  0  0  0
   -0.2465    2.9706   -0.9427 H   0  0  0  0  0  0  0  0  0  0  0  0
    0.6478    3.0607    0.4211 H   0  0  0  0  0  0  0  0  0  0  0  0
   -1.0509    3.0014    0.5616 H   0  0  0  0  0  0  0  0  0  0  0  0
   -0.0180    1.1678    0.0050 C   0  0  0  0  0  0  0  0  0  0  0  0
    1.0915    0.3886    0.0000 C   0  0  0  0  0  0  0  0  0  0  0  0
    2.0358    0.7044   -0.0020 H   0  0  0  0  0  0  0  0  0  0  0  0
    0.6689   -0.9184   -0.0017 N   0  0  0  0  0  0  0  0  0  0  0  0
   -0.6509   -0.9419   -0.0033 C   0  0  0  0  0  0  0  0  0  0  0  0
   -1.2185   -1.7612   -0.0048 H   0  0  0  0  0  0  0  0  0  0  0  0
   -1.0915    0.3039   -0.0000 N   0  0  0  0  0  0  0  0  0  0  0  0
   -2.0528    0.5788   -0.0020 H   0  0  0  0  0  0  0  0  0  0  0  0
  1  5  1  0
  5  6  1  0
  5  9  2  0
  1  2  1  0
  1  3  1  0
  1  4  1  0
  6  7  1  0
  6  8  1  0
 10 14  1  0
 14 15  2  0
 15 17  1  0
 17 18  2  0
 18 20  1  0
 20 14  1  0
 10 11  1  0
 10 12  1  0
 10 13  1  0
 15 16  1  0
 18 19  1  0
 20 21  1  0
M  END
>  <PDB_ID>  (295) 
pdb5fdy

>  <RESIDUE_NAME>  (295) 
ASN   HID

>  <FRAG_NAME>  (295) 
ACEM   MIMD

>  <FRAG_ATOM_NUM>  (295) 
fragi: 9  fragj: 12

>  <atom.prop.CHAIN_ID>  (295) 
A A A A A A A A A Z Z Z Z Z Z Z Z Z Z Z Z

>  <atom.prop.IS_HEAVY_ATOM>  (295) 
1 0 0 0 1 1 0 0 1 1 0 0 0 1 1 0 1 1 0 1 0

>  <DIFUSE_FUNC_ATOM>  (295) 
n/a

>  <FINAL_SINGLE_POINT_ENERGY>  (295) 
0

>  <NONCOV_INTER_ENERGY_QM>  (295) 
0

>  <FF_Energy>  (295) 
9.44

>  <QM_Energy>  (295) 
21.97

>  <source>  (295) 
ACEM_MIMD

>  <Index>  (295) 
36809

$$$$
ACEM-pdb5fno-A-ASN-165:MIMD-pdb5fno-A-HID-279
     RDKit          3D

 21 20  0  0  0  0  0  0  0  0999 V2000
   -6.2692    0.2522    1.7711 C   0  0  0  0  0  0  0  0  0  0  0  0
   -6.6692    0.9356    1.1714 H   0  0  0  0  0  0  0  0  0  0  0  0
   -6.1092    0.6299    2.6753 H   0  0  0  0  0  0  0  0  0  0  0  0
   -6.9634   -0.5833    1.8604 H   0  0  0  0  0  0  0  0  0  0  0  0
   -4.9275   -0.1775    1.1841 C   0  0  0  0  0  0  0  0  0  0  0  0
   -3.9818    0.7486    1.1263 N   0  0  0  0  0  0  0  0  0  0  0  0
   -4.1689    1.6741    1.4653 H   0  0  0  0  0  0  0  0  0  0  0  0
   -3.0832    0.5296    0.7475 H   0  0  0  0  0  0  0  0  0  0  0  0
   -4.7532   -1.3356    0.7757 O   0  0  0  0  0  0  0  0  0  0  0  0
   -0.1739    2.6593   -0.0153 C   0  0  0  0  0  0  0  0  0  0  0  0
    0.6596    3.0656    0.3757 H   0  0  0  0  0  0  0  0  0  0  0  0
   -0.9513    2.8953    0.5782 H   0  0  0  0  0  0  0  0  0  0  0  0
   -0.3440    3.0825   -1.0053 H   0  0  0  0  0  0  0  0  0  0  0  0
   -0.0159    1.1683   -0.0109 C   0  0  0  0  0  0  0  0  0  0  0  0
    1.0926    0.3893    0.0000 C   0  0  0  0  0  0  0  0  0  0  0  0
    2.0379    0.7026    0.0036 H   0  0  0  0  0  0  0  0  0  0  0  0
    0.6690   -0.9201    0.0062 N   0  0  0  0  0  0  0  0  0  0  0  0
   -0.6531   -0.9420    0.0048 C   0  0  0  0  0  0  0  0  0  0  0  0
   -1.2208   -1.7606    0.0087 H   0  0  0  0  0  0  0  0  0  0  0  0
   -1.0926    0.3045   -0.0000 N   0  0  0  0  0  0  0  0  0  0  0  0
   -2.0524    0.5821    0.0028 H   0  0  0  0  0  0  0  0  0  0  0  0
  1  5  1  0
  5  6  1  0
  5  9  2  0
  1  2  1  0
  1  3  1  0
  1  4  1  0
  6  7  1  0
  6  8  1  0
 10 14  1  0
 14 15  2  0
 15 17  1  0
 17 18  2  0
 18 20  1  0
 20 14  1  0
 10 11  1  0
 10 12  1  0
 10 13  1  0
 15 16  1  0
 18 19  1  0
 20 21  1  0
M  END
>  <PDB_ID>  (296) 
pdb5fno

>  <RESIDUE_NAME>  (296) 
ASN   HID

>  <FRAG_NAME>  (296) 
ACEM   MIMD

>  <FRAG_ATOM_NUM>  (296) 
fragi: 9  fragj: 12

>  <atom.prop.CHAIN_ID>  (296) 
A A A A A A A A A Z Z Z Z Z Z Z Z Z Z Z Z

>  <atom.prop.IS_HEAVY_ATOM>  (296) 
1 0 0 0 1 1 0 0 1 1 0 0 0 1 1 0 1 1 0 1 0

>  <DIFUSE_FUNC_ATOM>  (296) 
n/a

>  <FINAL_SINGLE_POINT_ENERGY>  (296) 
0

>  <NONCOV_INTER_ENERGY_QM>  (296) 
0

>  <FF_Energy>  (296) 
4.43

>  <QM_Energy>  (296) 
10.37

>  <source>  (296) 
ACEM_MIMD

>  <Index>  (296) 
36922

$$$$
ACEM-pdb5fvd-B-GLN-24:MIMD-pdb5fvd-A-HID-275
     RDKit          3D

 21 20  0  0  0  0  0  0  0  0999 V2000
   -4.8003   -1.8483   -2.6598 C   0  0  0  0  0  0  0  0  0  0  0  0
   -5.0797   -2.4573   -3.3999 H   0  0  0  0  0  0  0  0  0  0  0  0
   -4.8348   -0.9002   -2.9725 H   0  0  0  0  0  0  0  0  0  0  0  0
   -5.4755   -1.9750   -1.8135 H   0  0  0  0  0  0  0  0  0  0  0  0
   -3.3797   -2.1766   -2.2824 C   0  0  0  0  0  0  0  0  0  0  0  0
   -2.9821   -1.7905   -1.0795 N   0  0  0  0  0  0  0  0  0  0  0  0
   -2.0384   -1.9883   -0.7465 H   0  0  0  0  0  0  0  0  0  0  0  0
   -3.6368   -1.2856   -0.4815 H   0  0  0  0  0  0  0  0  0  0  0  0
   -2.6425   -2.7713   -3.0690 O   0  0  0  0  0  0  0  0  0  0  0  0
   -0.1758    2.6588   -0.0144 C   0  0  0  0  0  0  0  0  0  0  0  0
   -1.0361    2.8815   -0.4844 H   0  0  0  0  0  0  0  0  0  0  0  0
    0.5869    3.0526   -0.5384 H   0  0  0  0  0  0  0  0  0  0  0  0
   -0.1894    3.1094    0.9780 H   0  0  0  0  0  0  0  0  0  0  0  0
   -0.0178    1.1672   -0.0007 C   0  0  0  0  0  0  0  0  0  0  0  0
    1.0902    0.3899    0.0000 C   0  0  0  0  0  0  0  0  0  0  0  0
    2.0352    0.7048    0.0038 H   0  0  0  0  0  0  0  0  0  0  0  0
    0.6690   -0.9186   -0.0036 N   0  0  0  0  0  0  0  0  0  0  0  0
   -0.6512   -0.9426    0.0043 C   0  0  0  0  0  0  0  0  0  0  0  0
   -1.2187   -1.7609    0.0135 H   0  0  0  0  0  0  0  0  0  0  0  0
   -1.0902    0.3040   -0.0000 N   0  0  0  0  0  0  0  0  0  0  0  0
   -2.0519    0.5787   -0.0032 H   0  0  0  0  0  0  0  0  0  0  0  0
  1  5  1  0
  5  6  1  0
  5  9  2  0
  1  2  1  0
  1  3  1  0
  1  4  1  0
  6  7  1  0
  6  8  1  0
 10 14  1  0
 14 15  2  0
 15 17  1  0
 17 18  2  0
 18 20  1  0
 20 14  1  0
 10 11  1  0
 10 12  1  0
 10 13  1  0
 15 16  1  0
 18 19  1  0
 20 21  1  0
M  END
>  <PDB_ID>  (297) 
pdb5fvd

>  <RESIDUE_NAME>  (297) 
GLN   HID

>  <FRAG_NAME>  (297) 
ACEM   MIMD

>  <FRAG_ATOM_NUM>  (297) 
fragi: 9  fragj: 12

>  <atom.prop.CHAIN_ID>  (297) 
A A A A A A A A A Z Z Z Z Z Z Z Z Z Z Z Z

>  <atom.prop.IS_HEAVY_ATOM>  (297) 
1 0 0 0 1 1 0 0 1 1 0 0 0 1 1 0 1 1 0 1 0

>  <DIFUSE_FUNC_ATOM>  (297) 
n/a

>  <FINAL_SINGLE_POINT_ENERGY>  (297) 
0

>  <NONCOV_INTER_ENERGY_QM>  (297) 
0

>  <FF_Energy>  (297) 
10.22

>  <QM_Energy>  (297) 
21.99

>  <source>  (297) 
ACEM_MIMD

>  <Index>  (297) 
37044

$$$$
ACEM-pdb6g1h-A-ASN-94:MIMD-pdb6g1h-A-HID-125
     RDKit          3D

 21 20  0  0  0  0  0  0  0  0999 V2000
   -5.0995    2.6829    1.3753 C   0  0  0  0  0  0  0  0  0  0  0  0
   -5.9804    2.4822    1.7774 H   0  0  0  0  0  0  0  0  0  0  0  0
   -5.1602    3.4258    0.7256 H   0  0  0  0  0  0  0  0  0  0  0  0
   -4.4110    2.9711    2.1696 H   0  0  0  0  0  0  0  0  0  0  0  0
   -4.5992    1.4483    0.6581 C   0  0  0  0  0  0  0  0  0  0  0  0
   -3.4928    1.6139    0.0443 N   0  0  0  0  0  0  0  0  0  0  0  0
   -2.9791    2.4746    0.0295 H   0  0  0  0  0  0  0  0  0  0  0  0
   -3.0735    0.8299   -0.4796 H   0  0  0  0  0  0  0  0  0  0  0  0
   -5.1625    0.2962    0.7957 O   0  0  0  0  0  0  0  0  0  0  0  0
   -0.1123    2.6752   -0.0544 C   0  0  0  0  0  0  0  0  0  0  0  0
    0.6206    3.0437    0.5256 H   0  0  0  0  0  0  0  0  0  0  0  0
   -0.9987    2.9285    0.3452 H   0  0  0  0  0  0  0  0  0  0  0  0
   -0.0327    3.1101   -1.0507 H   0  0  0  0  0  0  0  0  0  0  0  0
   -0.0071    1.1732   -0.0435 C   0  0  0  0  0  0  0  0  0  0  0  0
    1.0960    0.3788   -0.0000 C   0  0  0  0  0  0  0  0  0  0  0  0
    2.0435    0.6825    0.0095 H   0  0  0  0  0  0  0  0  0  0  0  0
    0.6586   -0.9301    0.0282 N   0  0  0  0  0  0  0  0  0  0  0  0
   -0.6515   -0.9419    0.0154 C   0  0  0  0  0  0  0  0  0  0  0  0
   -1.2351   -1.7510    0.0182 H   0  0  0  0  0  0  0  0  0  0  0  0
   -1.0960    0.3201   -0.0000 N   0  0  0  0  0  0  0  0  0  0  0  0
   -2.0481    0.5948    0.0145 H   0  0  0  0  0  0  0  0  0  0  0  0
  1  5  1  0
  5  6  1  0
  5  9  2  0
  1  2  1  0
  1  3  1  0
  1  4  1  0
  6  7  1  0
  6  8  1  0
 10 14  1  0
 14 15  2  0
 15 17  1  0
 17 18  2  0
 18 20  1  0
 20 14  1  0
 10 11  1  0
 10 12  1  0
 10 13  1  0
 15 16  1  0
 18 19  1  0
 20 21  1  0
M  END
>  <PDB_ID>  (298) 
pdb6g1h

>  <RESIDUE_NAME>  (298) 
ASN   HID

>  <FRAG_NAME>  (298) 
ACEM   MIMD

>  <FRAG_ATOM_NUM>  (298) 
fragi: 9  fragj: 12

>  <atom.prop.CHAIN_ID>  (298) 
A A A A A A A A A Z Z Z Z Z Z Z Z Z Z Z Z

>  <atom.prop.IS_HEAVY_ATOM>  (298) 
1 0 0 0 1 1 0 0 1 1 0 0 0 1 1 0 1 1 0 1 0

>  <DIFUSE_FUNC_ATOM>  (298) 
n/a

>  <FINAL_SINGLE_POINT_ENERGY>  (298) 
0

>  <NONCOV_INTER_ENERGY_QM>  (298) 
0

>  <FF_Energy>  (298) 
9.66

>  <QM_Energy>  (298) 
19.45

>  <source>  (298) 
ACEM_MIMD

>  <Index>  (298) 
37068

$$$$
ACEM-pdb6gvb-A-GLN-258:MIMD-pdb6gvb-A-HID-215
     RDKit          3D

 21 20  0  0  0  0  0  0  0  0999 V2000
   -2.4641   -3.0249    3.0017 C   0  0  0  0  0  0  0  0  0  0  0  0
   -1.6235   -2.6590    3.3947 H   0  0  0  0  0  0  0  0  0  0  0  0
   -2.9650   -3.5412    3.6929 H   0  0  0  0  0  0  0  0  0  0  0  0
   -3.0843   -2.2023    2.6456 H   0  0  0  0  0  0  0  0  0  0  0  0
   -2.0889   -3.9724    1.8760 C   0  0  0  0  0  0  0  0  0  0  0  0
   -1.4065   -3.4452    0.8665 N   0  0  0  0  0  0  0  0  0  0  0  0
   -1.1080   -4.0214    0.0824 H   0  0  0  0  0  0  0  0  0  0  0  0
   -1.1855   -2.4516    0.8873 H   0  0  0  0  0  0  0  0  0  0  0  0
   -2.4281   -5.1628    1.9066 O   0  0  0  0  0  0  0  0  0  0  0  0
   -0.1793    2.6510    0.0296 C   0  0  0  0  0  0  0  0  0  0  0  0
    0.1406    3.0193   -0.8529 H   0  0  0  0  0  0  0  0  0  0  0  0
    0.4082    3.0261    0.7576 H   0  0  0  0  0  0  0  0  0  0  0  0
   -1.2030    2.9851    0.1990 H   0  0  0  0  0  0  0  0  0  0  0  0
   -0.0156    1.1681    0.0091 C   0  0  0  0  0  0  0  0  0  0  0  0
    1.0929    0.3902   -0.0000 C   0  0  0  0  0  0  0  0  0  0  0  0
    2.0376    0.7032   -0.0043 H   0  0  0  0  0  0  0  0  0  0  0  0
    0.6686   -0.9189   -0.0022 N   0  0  0  0  0  0  0  0  0  0  0  0
   -0.6530   -0.9435   -0.0070 C   0  0  0  0  0  0  0  0  0  0  0  0
   -1.2204   -1.7616   -0.0122 H   0  0  0  0  0  0  0  0  0  0  0  0
   -1.0929    0.3042    0.0000 N   0  0  0  0  0  0  0  0  0  0  0  0
   -2.0527    0.5813   -0.0029 H   0  0  0  0  0  0  0  0  0  0  0  0
  1  5  1  0
  5  6  1  0
  5  9  2  0
  1  2  1  0
  1  3  1  0
  1  4  1  0
  6  7  1  0
  6  8  1  0
 10 14  1  0
 14 15  2  0
 15 17  1  0
 17 18  2  0
 18 20  1  0
 20 14  1  0
 10 11  1  0
 10 12  1  0
 10 13  1  0
 15 16  1  0
 18 19  1  0
 20 21  1  0
M  END
>  <PDB_ID>  (299) 
pdb6gvb

>  <RESIDUE_NAME>  (299) 
GLN   HID

>  <FRAG_NAME>  (299) 
ACEM   MIMD

>  <FRAG_ATOM_NUM>  (299) 
fragi: 9  fragj: 12

>  <atom.prop.CHAIN_ID>  (299) 
A A A A A A A A A Z Z Z Z Z Z Z Z Z Z Z Z

>  <atom.prop.IS_HEAVY_ATOM>  (299) 
1 0 0 0 1 1 0 0 1 1 0 0 0 1 1 0 1 1 0 1 0

>  <DIFUSE_FUNC_ATOM>  (299) 
n/a

>  <FINAL_SINGLE_POINT_ENERGY>  (299) 
0

>  <NONCOV_INTER_ENERGY_QM>  (299) 
0

>  <FF_Energy>  (299) 
8.68

>  <QM_Energy>  (299) 
20.35

>  <source>  (299) 
ACEM_MIMD

>  <Index>  (299) 
37440

$$$$
ACEM-pdb6gvb-B-GLN-258:MIMD-pdb6gvb-B-HID-215
     RDKit          3D

 21 20  0  0  0  0  0  0  0  0999 V2000
   -2.8212   -3.4380    1.7463 C   0  0  0  0  0  0  0  0  0  0  0  0
   -1.9909   -3.1387    2.2068 H   0  0  0  0  0  0  0  0  0  0  0  0
   -3.3552   -4.0256    2.3476 H   0  0  0  0  0  0  0  0  0  0  0  0
   -3.4163   -2.5648    1.4792 H   0  0  0  0  0  0  0  0  0  0  0  0
   -2.4119   -4.2614    0.5141 C   0  0  0  0  0  0  0  0  0  0  0  0
   -1.6836   -3.6337   -0.4027 N   0  0  0  0  0  0  0  0  0  0  0  0
   -1.3676   -4.1190   -1.2318 H   0  0  0  0  0  0  0  0  0  0  0  0
   -1.4493   -2.6539   -0.2553 H   0  0  0  0  0  0  0  0  0  0  0  0
   -2.7585   -5.4406    0.3939 O   0  0  0  0  0  0  0  0  0  0  0  0
   -0.1756    2.6552   -0.0060 C   0  0  0  0  0  0  0  0  0  0  0  0
    0.1715    3.0140   -0.8785 H   0  0  0  0  0  0  0  0  0  0  0  0
    0.3797    3.0337    0.7410 H   0  0  0  0  0  0  0  0  0  0  0  0
   -1.2061    2.9863    0.1226 H   0  0  0  0  0  0  0  0  0  0  0  0
   -0.0165    1.1671   -0.0072 C   0  0  0  0  0  0  0  0  0  0  0  0
    1.0915    0.3898    0.0000 C   0  0  0  0  0  0  0  0  0  0  0  0
    2.0364    0.7035    0.0009 H   0  0  0  0  0  0  0  0  0  0  0  0
    0.6683   -0.9178    0.0068 N   0  0  0  0  0  0  0  0  0  0  0  0
   -0.6518   -0.9429    0.0005 C   0  0  0  0  0  0  0  0  0  0  0  0
   -1.2183   -1.7611   -0.0033 H   0  0  0  0  0  0  0  0  0  0  0  0
   -1.0915    0.3038   -0.0000 N   0  0  0  0  0  0  0  0  0  0  0  0
   -2.0521    0.5796    0.0055 H   0  0  0  0  0  0  0  0  0  0  0  0
  1  5  1  0
  5  6  1  0
  5  9  2  0
  1  2  1  0
  1  3  1  0
  1  4  1  0
  6  7  1  0
  6  8  1  0
 10 14  1  0
 14 15  2  0
 15 17  1  0
 17 18  2  0
 18 20  1  0
 20 14  1  0
 10 11  1  0
 10 12  1  0
 10 13  1  0
 15 16  1  0
 18 19  1  0
 20 21  1  0
M  END
>  <PDB_ID>  (300) 
pdb6gvb

>  <RESIDUE_NAME>  (300) 
GLN   HID

>  <FRAG_NAME>  (300) 
ACEM   MIMD

>  <FRAG_ATOM_NUM>  (300) 
fragi: 9  fragj: 12

>  <atom.prop.CHAIN_ID>  (300) 
A A A A A A A A A Z Z Z Z Z Z Z Z Z Z Z Z

>  <atom.prop.IS_HEAVY_ATOM>  (300) 
1 0 0 0 1 1 0 0 1 1 0 0 0 1 1 0 1 1 0 1 0

>  <DIFUSE_FUNC_ATOM>  (300) 
n/a

>  <FINAL_SINGLE_POINT_ENERGY>  (300) 
0

>  <NONCOV_INTER_ENERGY_QM>  (300) 
0

>  <FF_Energy>  (300) 
8.34

>  <QM_Energy>  (300) 
28.02

>  <source>  (300) 
ACEM_MIMD

>  <Index>  (300) 
37442

$$$$
ACEM-pdb6gvb-C-GLN-258:MIMD-pdb6gvb-C-HID-215
     RDKit          3D

 21 20  0  0  0  0  0  0  0  0999 V2000
   -2.2182   -3.0509    3.0265 C   0  0  0  0  0  0  0  0  0  0  0  0
   -1.3901   -2.5764    3.3043 H   0  0  0  0  0  0  0  0  0  0  0  0
   -2.6016   -3.5589    3.7892 H   0  0  0  0  0  0  0  0  0  0  0  0
   -2.9497   -2.3198    2.6822 H   0  0  0  0  0  0  0  0  0  0  0  0
   -1.8625   -4.0327    1.9214 C   0  0  0  0  0  0  0  0  0  0  0  0
   -1.1997   -3.5369    0.8892 N   0  0  0  0  0  0  0  0  0  0  0  0
   -0.9134   -4.1357    0.1149 H   0  0  0  0  0  0  0  0  0  0  0  0
   -0.9765   -2.5428    0.8746 H   0  0  0  0  0  0  0  0  0  0  0  0
   -2.2142   -5.2161    1.9812 O   0  0  0  0  0  0  0  0  0  0  0  0
   -0.1744    2.6562    0.0018 C   0  0  0  0  0  0  0  0  0  0  0  0
    0.1224    3.0062   -0.8935 H   0  0  0  0  0  0  0  0  0  0  0  0
    0.4281    3.0412    0.7099 H   0  0  0  0  0  0  0  0  0  0  0  0
   -1.1948    2.9906    0.1895 H   0  0  0  0  0  0  0  0  0  0  0  0
   -0.0129    1.1683    0.0038 C   0  0  0  0  0  0  0  0  0  0  0  0
    1.0920    0.3881    0.0000 C   0  0  0  0  0  0  0  0  0  0  0  0
    2.0389    0.6997   -0.0043 H   0  0  0  0  0  0  0  0  0  0  0  0
    0.6661   -0.9187    0.0045 N   0  0  0  0  0  0  0  0  0  0  0  0
   -0.6532   -0.9426   -0.0083 C   0  0  0  0  0  0  0  0  0  0  0  0
   -1.2219   -1.7593   -0.0215 H   0  0  0  0  0  0  0  0  0  0  0  0
   -1.0920    0.3051   -0.0000 N   0  0  0  0  0  0  0  0  0  0  0  0
   -2.0505    0.5841    0.0012 H   0  0  0  0  0  0  0  0  0  0  0  0
  1  5  1  0
  5  6  1  0
  5  9  2  0
  1  2  1  0
  1  3  1  0
  1  4  1  0
  6  7  1  0
  6  8  1  0
 10 14  1  0
 14 15  2  0
 15 17  1  0
 17 18  2  0
 18 20  1  0
 20 14  1  0
 10 11  1  0
 10 12  1  0
 10 13  1  0
 15 16  1  0
 18 19  1  0
 20 21  1  0
M  END
>  <PDB_ID>  (301) 
pdb6gvb

>  <RESIDUE_NAME>  (301) 
GLN   HID

>  <FRAG_NAME>  (301) 
ACEM   MIMD

>  <FRAG_ATOM_NUM>  (301) 
fragi: 9  fragj: 12

>  <atom.prop.CHAIN_ID>  (301) 
A A A A A A A A A Z Z Z Z Z Z Z Z Z Z Z Z

>  <atom.prop.IS_HEAVY_ATOM>  (301) 
1 0 0 0 1 1 0 0 1 1 0 0 0 1 1 0 1 1 0 1 0

>  <DIFUSE_FUNC_ATOM>  (301) 
n/a

>  <FINAL_SINGLE_POINT_ENERGY>  (301) 
0

>  <NONCOV_INTER_ENERGY_QM>  (301) 
0

>  <FF_Energy>  (301) 
4.22

>  <QM_Energy>  (301) 
14.66

>  <source>  (301) 
ACEM_MIMD

>  <Index>  (301) 
37444

$$$$
ACEM-pdb6gvb-D-GLN-258:MIMD-pdb6gvb-D-HID-215
     RDKit          3D

 21 20  0  0  0  0  0  0  0  0999 V2000
   -2.5034   -3.1874    2.6446 C   0  0  0  0  0  0  0  0  0  0  0  0
   -1.6571   -2.8285    3.0309 H   0  0  0  0  0  0  0  0  0  0  0  0
   -2.9836   -3.7338    3.3266 H   0  0  0  0  0  0  0  0  0  0  0  0
   -3.1389   -2.3602    2.3284 H   0  0  0  0  0  0  0  0  0  0  0  0
   -2.1376   -4.1019    1.4757 C   0  0  0  0  0  0  0  0  0  0  0  0
   -1.5361   -3.5260    0.4458 N   0  0  0  0  0  0  0  0  0  0  0  0
   -1.2507   -4.0728   -0.3622 H   0  0  0  0  0  0  0  0  0  0  0  0
   -1.3628   -2.5229    0.4732 H   0  0  0  0  0  0  0  0  0  0  0  0
   -2.4131   -5.3079    1.4958 O   0  0  0  0  0  0  0  0  0  0  0  0
   -0.1773    2.6602    0.0155 C   0  0  0  0  0  0  0  0  0  0  0  0
    0.1157    3.0184   -0.8792 H   0  0  0  0  0  0  0  0  0  0  0  0
    0.4303    3.0414    0.7225 H   0  0  0  0  0  0  0  0  0  0  0  0
   -1.1934    3.0030    0.2110 H   0  0  0  0  0  0  0  0  0  0  0  0
   -0.0170    1.1696    0.0060 C   0  0  0  0  0  0  0  0  0  0  0  0
    1.0901    0.3902    0.0000 C   0  0  0  0  0  0  0  0  0  0  0  0
    2.0362    0.7040   -0.0020 H   0  0  0  0  0  0  0  0  0  0  0  0
    0.6694   -0.9193   -0.0007 N   0  0  0  0  0  0  0  0  0  0  0  0
   -0.6524   -0.9436   -0.0053 C   0  0  0  0  0  0  0  0  0  0  0  0
   -1.2197   -1.7613   -0.0107 H   0  0  0  0  0  0  0  0  0  0  0  0
   -1.0901    0.3030   -0.0000 N   0  0  0  0  0  0  0  0  0  0  0  0
   -2.0522    0.5802   -0.0012 H   0  0  0  0  0  0  0  0  0  0  0  0
  1  5  1  0
  5  6  1  0
  5  9  2  0
  1  2  1  0
  1  3  1  0
  1  4  1  0
  6  7  1  0
  6  8  1  0
 10 14  1  0
 14 15  2  0
 15 17  1  0
 17 18  2  0
 18 20  1  0
 20 14  1  0
 10 11  1  0
 10 12  1  0
 10 13  1  0
 15 16  1  0
 18 19  1  0
 20 21  1  0
M  END
>  <PDB_ID>  (302) 
pdb6gvb

>  <RESIDUE_NAME>  (302) 
GLN   HID

>  <FRAG_NAME>  (302) 
ACEM   MIMD

>  <FRAG_ATOM_NUM>  (302) 
fragi: 9  fragj: 12

>  <atom.prop.CHAIN_ID>  (302) 
A A A A A A A A A Z Z Z Z Z Z Z Z Z Z Z Z

>  <atom.prop.IS_HEAVY_ATOM>  (302) 
1 0 0 0 1 1 0 0 1 1 0 0 0 1 1 0 1 1 0 1 0

>  <DIFUSE_FUNC_ATOM>  (302) 
n/a

>  <FINAL_SINGLE_POINT_ENERGY>  (302) 
0

>  <NONCOV_INTER_ENERGY_QM>  (302) 
0

>  <FF_Energy>  (302) 
14.94

>  <QM_Energy>  (302) 
36.08

>  <source>  (302) 
ACEM_MIMD

>  <Index>  (302) 
37446

$$$$
ACEM-pdb6gxv-B-GLN-11:MIMD-pdb6gxv-B-HID-331
     RDKit          3D

 21 20  0  0  0  0  0  0  0  0999 V2000
   -4.8633    1.6416    3.3836 C   0  0  0  0  0  0  0  0  0  0  0  0
   -4.4676    2.4555    3.8452 H   0  0  0  0  0  0  0  0  0  0  0  0
   -4.5942    0.8301    3.9336 H   0  0  0  0  0  0  0  0  0  0  0  0
   -5.9488    1.7291    3.4286 H   0  0  0  0  0  0  0  0  0  0  0  0
   -4.2674    1.5216    2.0171 C   0  0  0  0  0  0  0  0  0  0  0  0
   -2.9499    1.3785    2.0212 N   0  0  0  0  0  0  0  0  0  0  0  0
   -2.4393    1.2721    1.1165 H   0  0  0  0  0  0  0  0  0  0  0  0
   -2.4435    1.3730    2.8920 H   0  0  0  0  0  0  0  0  0  0  0  0
   -4.9630    1.5628    0.9839 O   0  0  0  0  0  0  0  0  0  0  0  0
   -0.1418    2.6402   -0.0129 C   0  0  0  0  0  0  0  0  0  0  0  0
    0.7619    3.0496    0.0882 H   0  0  0  0  0  0  0  0  0  0  0  0
   -0.7308    2.9268    0.7382 H   0  0  0  0  0  0  0  0  0  0  0  0
   -0.5794    2.9816   -0.9510 H   0  0  0  0  0  0  0  0  0  0  0  0
   -0.0033    1.1536    0.0245 C   0  0  0  0  0  0  0  0  0  0  0  0
    1.0908    0.3660   -0.0000 C   0  0  0  0  0  0  0  0  0  0  0  0
    2.0446    0.6847    0.0087 H   0  0  0  0  0  0  0  0  0  0  0  0
    0.6752   -0.9230   -0.0371 N   0  0  0  0  0  0  0  0  0  0  0  0
   -0.6719   -0.9259    0.0127 C   0  0  0  0  0  0  0  0  0  0  0  0
   -1.2371   -1.7368    0.0532 H   0  0  0  0  0  0  0  0  0  0  0  0
   -1.0908    0.3292    0.0000 N   0  0  0  0  0  0  0  0  0  0  0  0
   -2.0458    0.6198   -0.0239 H   0  0  0  0  0  0  0  0  0  0  0  0
  1  5  1  0
  5  6  1  0
  5  9  2  0
  1  2  1  0
  1  3  1  0
  1  4  1  0
  6  7  1  0
  6  8  1  0
 10 14  1  0
 14 15  2  0
 15 17  1  0
 17 18  2  0
 18 20  1  0
 20 14  1  0
 10 11  1  0
 10 12  1  0
 10 13  1  0
 15 16  1  0
 18 19  1  0
 20 21  1  0
M  END
>  <PDB_ID>  (303) 
pdb6gxv

>  <RESIDUE_NAME>  (303) 
GLN   HID

>  <FRAG_NAME>  (303) 
ACEM   MIMD

>  <FRAG_ATOM_NUM>  (303) 
fragi: 9  fragj: 12

>  <atom.prop.CHAIN_ID>  (303) 
A A A A A A A A A Z Z Z Z Z Z Z Z Z Z Z Z

>  <atom.prop.IS_HEAVY_ATOM>  (303) 
1 0 0 0 1 1 0 0 1 1 0 0 0 1 1 0 1 1 0 1 0

>  <DIFUSE_FUNC_ATOM>  (303) 
n/a

>  <FINAL_SINGLE_POINT_ENERGY>  (303) 
0

>  <NONCOV_INTER_ENERGY_QM>  (303) 
0

>  <FF_Energy>  (303) 
2.46

>  <QM_Energy>  (303) 
7.71

>  <source>  (303) 
ACEM_MIMD

>  <Index>  (303) 
37521

$$$$
ACEM-pdb6h7f-B-ASN-204:MIMD-pdb6h7f-B-HID-186
     RDKit          3D

 21 20  0  0  0  0  0  0  0  0999 V2000
   -2.9843   -3.7350   -0.7180 C   0  0  0  0  0  0  0  0  0  0  0  0
   -3.3372   -4.3762   -1.3949 H   0  0  0  0  0  0  0  0  0  0  0  0
   -2.6710   -2.9018   -1.1676 H   0  0  0  0  0  0  0  0  0  0  0  0
   -3.7966   -3.4719   -0.0405 H   0  0  0  0  0  0  0  0  0  0  0  0
   -1.8099   -4.3754   -0.0080 C   0  0  0  0  0  0  0  0  0  0  0  0
   -0.8003   -3.5853    0.3064 N   0  0  0  0  0  0  0  0  0  0  0  0
   -0.8401   -2.6076    0.0779 H   0  0  0  0  0  0  0  0  0  0  0  0
    0.0061   -3.9521    0.7710 H   0  0  0  0  0  0  0  0  0  0  0  0
   -1.8047   -5.5778    0.2443 O   0  0  0  0  0  0  0  0  0  0  0  0
   -0.1773    2.6497   -0.0161 C   0  0  0  0  0  0  0  0  0  0  0  0
   -0.2492    2.9615   -0.9750 H   0  0  0  0  0  0  0  0  0  0  0  0
    0.6544    3.0645    0.3806 H   0  0  0  0  0  0  0  0  0  0  0  0
   -1.0444    3.0138    0.5350 H   0  0  0  0  0  0  0  0  0  0  0  0
   -0.0104    1.1669   -0.0138 C   0  0  0  0  0  0  0  0  0  0  0  0
    1.0965    0.3886    0.0000 C   0  0  0  0  0  0  0  0  0  0  0  0
    2.0423    0.7032    0.0086 H   0  0  0  0  0  0  0  0  0  0  0  0
    0.6752   -0.9193    0.0018 N   0  0  0  0  0  0  0  0  0  0  0  0
   -0.6649   -0.9436    0.0120 C   0  0  0  0  0  0  0  0  0  0  0  0
   -1.2236   -1.7596    0.0279 H   0  0  0  0  0  0  0  0  0  0  0  0
   -1.0965    0.3074   -0.0000 N   0  0  0  0  0  0  0  0  0  0  0  0
   -2.0528    0.5924   -0.0008 H   0  0  0  0  0  0  0  0  0  0  0  0
  1  5  1  0
  5  6  1  0
  5  9  2  0
  1  2  1  0
  1  3  1  0
  1  4  1  0
  6  7  1  0
  6  8  1  0
 10 14  1  0
 14 15  2  0
 15 17  1  0
 17 18  2  0
 18 20  1  0
 20 14  1  0
 10 11  1  0
 10 12  1  0
 10 13  1  0
 15 16  1  0
 18 19  1  0
 20 21  1  0
M  END
>  <PDB_ID>  (304) 
pdb6h7f

>  <RESIDUE_NAME>  (304) 
ASN   HID

>  <FRAG_NAME>  (304) 
ACEM   MIMD

>  <FRAG_ATOM_NUM>  (304) 
fragi: 9  fragj: 12

>  <atom.prop.CHAIN_ID>  (304) 
A A A A A A A A A Z Z Z Z Z Z Z Z Z Z Z Z

>  <atom.prop.IS_HEAVY_ATOM>  (304) 
1 0 0 0 1 1 0 0 1 1 0 0 0 1 1 0 1 1 0 1 0

>  <DIFUSE_FUNC_ATOM>  (304) 
n/a

>  <FINAL_SINGLE_POINT_ENERGY>  (304) 
0

>  <NONCOV_INTER_ENERGY_QM>  (304) 
0

>  <FF_Energy>  (304) 
13.46

>  <QM_Energy>  (304) 
35.89

>  <source>  (304) 
ACEM_MIMD

>  <Index>  (304) 
37628

$$$$
ACEM-pdb6h7f-C-ASN-204:MIMD-pdb6h7f-C-HID-186
     RDKit          3D

 21 20  0  0  0  0  0  0  0  0999 V2000
   -3.0234   -3.7265   -0.6815 C   0  0  0  0  0  0  0  0  0  0  0  0
   -3.3646   -4.3636   -1.3649 H   0  0  0  0  0  0  0  0  0  0  0  0
   -2.7144   -2.8861   -1.1160 H   0  0  0  0  0  0  0  0  0  0  0  0
   -3.8391   -3.4819   -0.0011 H   0  0  0  0  0  0  0  0  0  0  0  0
   -1.8502   -4.3640    0.0339 C   0  0  0  0  0  0  0  0  0  0  0  0
   -0.8474   -3.5602    0.3580 N   0  0  0  0  0  0  0  0  0  0  0  0
   -0.8949   -2.5844    0.1328 H   0  0  0  0  0  0  0  0  0  0  0  0
   -0.0418   -3.9230    0.8259 H   0  0  0  0  0  0  0  0  0  0  0  0
   -1.8425   -5.5766    0.2830 O   0  0  0  0  0  0  0  0  0  0  0  0
   -0.1674    2.6490    0.0079 C   0  0  0  0  0  0  0  0  0  0  0  0
   -0.2149    2.9685   -0.9476 H   0  0  0  0  0  0  0  0  0  0  0  0
    0.6499    3.0570    0.4357 H   0  0  0  0  0  0  0  0  0  0  0  0
   -1.0513    3.0038    0.5380 H   0  0  0  0  0  0  0  0  0  0  0  0
   -0.0081    1.1652    0.0035 C   0  0  0  0  0  0  0  0  0  0  0  0
    1.0961    0.3823   -0.0000 C   0  0  0  0  0  0  0  0  0  0  0  0
    2.0444    0.6984    0.0001 H   0  0  0  0  0  0  0  0  0  0  0  0
    0.6768   -0.9208   -0.0009 N   0  0  0  0  0  0  0  0  0  0  0  0
   -0.6686   -0.9359   -0.0027 C   0  0  0  0  0  0  0  0  0  0  0  0
   -1.2270   -1.7550   -0.0031 H   0  0  0  0  0  0  0  0  0  0  0  0
   -1.0961    0.3092   -0.0000 N   0  0  0  0  0  0  0  0  0  0  0  0
   -2.0516    0.5989   -0.0019 H   0  0  0  0  0  0  0  0  0  0  0  0
  1  5  1  0
  5  6  1  0
  5  9  2  0
  1  2  1  0
  1  3  1  0
  1  4  1  0
  6  7  1  0
  6  8  1  0
 10 14  1  0
 14 15  2  0
 15 17  1  0
 17 18  2  0
 18 20  1  0
 20 14  1  0
 10 11  1  0
 10 12  1  0
 10 13  1  0
 15 16  1  0
 18 19  1  0
 20 21  1  0
M  END
>  <PDB_ID>  (305) 
pdb6h7f

>  <RESIDUE_NAME>  (305) 
ASN   HID

>  <FRAG_NAME>  (305) 
ACEM   MIMD

>  <FRAG_ATOM_NUM>  (305) 
fragi: 9  fragj: 12

>  <atom.prop.CHAIN_ID>  (305) 
A A A A A A A A A Z Z Z Z Z Z Z Z Z Z Z Z

>  <atom.prop.IS_HEAVY_ATOM>  (305) 
1 0 0 0 1 1 0 0 1 1 0 0 0 1 1 0 1 1 0 1 0

>  <DIFUSE_FUNC_ATOM>  (305) 
n/a

>  <FINAL_SINGLE_POINT_ENERGY>  (305) 
0

>  <NONCOV_INTER_ENERGY_QM>  (305) 
0

>  <FF_Energy>  (305) 
15.07

>  <QM_Energy>  (305) 
39.04

>  <source>  (305) 
ACEM_MIMD

>  <Index>  (305) 
37630

$$$$
ACEM-pdb5gzx-B-GLN-298:MIMD-pdb5gzx-B-HID-294
     RDKit          3D

 21 20  0  0  0  0  0  0  0  0999 V2000
   -3.5889   -0.9453   -2.4796 C   0  0  0  0  0  0  0  0  0  0  0  0
   -3.0206   -1.7319   -2.6863 H   0  0  0  0  0  0  0  0  0  0  0  0
   -3.0327   -0.1363   -2.3352 H   0  0  0  0  0  0  0  0  0  0  0  0
   -4.2815   -0.7690   -3.3027 H   0  0  0  0  0  0  0  0  0  0  0  0
   -4.3538   -1.2357   -1.1928 C   0  0  0  0  0  0  0  0  0  0  0  0
   -3.8611   -0.7039   -0.0709 N   0  0  0  0  0  0  0  0  0  0  0  0
   -4.3256   -0.8449    0.8155 H   0  0  0  0  0  0  0  0  0  0  0  0
   -3.0062   -0.1536   -0.1290 H   0  0  0  0  0  0  0  0  0  0  0  0
   -5.4018   -1.9082   -1.2153 O   0  0  0  0  0  0  0  0  0  0  0  0
   -0.1699    2.6565    0.0157 C   0  0  0  0  0  0  0  0  0  0  0  0
    0.7055    3.0628    0.3058 H   0  0  0  0  0  0  0  0  0  0  0  0
   -0.8699    2.8950    0.7000 H   0  0  0  0  0  0  0  0  0  0  0  0
   -0.4565    3.0815   -0.9463 H   0  0  0  0  0  0  0  0  0  0  0  0
   -0.0147    1.1682    0.0029 C   0  0  0  0  0  0  0  0  0  0  0  0
    1.0923    0.3868    0.0000 C   0  0  0  0  0  0  0  0  0  0  0  0
    2.0379    0.7000   -0.0001 H   0  0  0  0  0  0  0  0  0  0  0  0
    0.6681   -0.9197   -0.0006 N   0  0  0  0  0  0  0  0  0  0  0  0
   -0.6534   -0.9415   -0.0022 C   0  0  0  0  0  0  0  0  0  0  0  0
   -1.2222   -1.7591   -0.0037 H   0  0  0  0  0  0  0  0  0  0  0  0
   -1.0923    0.3061   -0.0000 N   0  0  0  0  0  0  0  0  0  0  0  0
   -2.0519    0.5839   -0.0006 H   0  0  0  0  0  0  0  0  0  0  0  0
  1  5  1  0
  5  6  1  0
  5  9  2  0
  1  2  1  0
  1  3  1  0
  1  4  1  0
  6  7  1  0
  6  8  1  0
 10 14  1  0
 14 15  2  0
 15 17  1  0
 17 18  2  0
 18 20  1  0
 20 14  1  0
 10 11  1  0
 10 12  1  0
 10 13  1  0
 15 16  1  0
 18 19  1  0
 20 21  1  0
M  END
>  <PDB_ID>  (306) 
pdb5gzx

>  <RESIDUE_NAME>  (306) 
GLN   HID

>  <FRAG_NAME>  (306) 
ACEM   MIMD

>  <FRAG_ATOM_NUM>  (306) 
fragi: 9  fragj: 12

>  <atom.prop.CHAIN_ID>  (306) 
A A A A A A A A A Z Z Z Z Z Z Z Z Z Z Z Z

>  <atom.prop.IS_HEAVY_ATOM>  (306) 
1 0 0 0 1 1 0 0 1 1 0 0 0 1 1 0 1 1 0 1 0

>  <DIFUSE_FUNC_ATOM>  (306) 
n/a

>  <FINAL_SINGLE_POINT_ENERGY>  (306) 
0

>  <NONCOV_INTER_ENERGY_QM>  (306) 
0

>  <FF_Energy>  (306) 
7.11

>  <QM_Energy>  (306) 
14.04

>  <source>  (306) 
ACEM_MIMD

>  <Index>  (306) 
37644

$$$$
ACEM-pdb5gzx-D-GLN-298:MIMD-pdb5gzx-D-HID-294
     RDKit          3D

 21 20  0  0  0  0  0  0  0  0999 V2000
   -3.5585   -1.0386   -2.3511 C   0  0  0  0  0  0  0  0  0  0  0  0
   -3.1758   -1.9042   -2.6475 H   0  0  0  0  0  0  0  0  0  0  0  0
   -2.8406   -0.3750   -2.1829 H   0  0  0  0  0  0  0  0  0  0  0  0
   -4.2300   -0.6577   -3.1206 H   0  0  0  0  0  0  0  0  0  0  0  0
   -4.3079   -1.2773   -1.0281 C   0  0  0  0  0  0  0  0  0  0  0  0
   -3.8664   -0.6230    0.0363 N   0  0  0  0  0  0  0  0  0  0  0  0
   -4.3208   -0.7226    0.9323 H   0  0  0  0  0  0  0  0  0  0  0  0
   -3.0541   -0.0133   -0.0650 H   0  0  0  0  0  0  0  0  0  0  0  0
   -5.2800   -2.0364   -0.9811 O   0  0  0  0  0  0  0  0  0  0  0  0
   -0.1759    2.6549    0.0223 C   0  0  0  0  0  0  0  0  0  0  0  0
    0.7000    3.0637    0.3013 H   0  0  0  0  0  0  0  0  0  0  0  0
   -0.8722    2.8942    0.7082 H   0  0  0  0  0  0  0  0  0  0  0  0
   -0.4706    3.0692   -0.9418 H   0  0  0  0  0  0  0  0  0  0  0  0
   -0.0175    1.1670    0.0134 C   0  0  0  0  0  0  0  0  0  0  0  0
    1.0916    0.3903   -0.0000 C   0  0  0  0  0  0  0  0  0  0  0  0
    2.0366    0.7060   -0.0040 H   0  0  0  0  0  0  0  0  0  0  0  0
    0.6703   -0.9173   -0.0064 N   0  0  0  0  0  0  0  0  0  0  0  0
   -0.6528   -0.9429   -0.0071 C   0  0  0  0  0  0  0  0  0  0  0  0
   -1.2181   -1.7613   -0.0105 H   0  0  0  0  0  0  0  0  0  0  0  0
   -1.0916    0.3028    0.0000 N   0  0  0  0  0  0  0  0  0  0  0  0
   -2.0530    0.5791   -0.0042 H   0  0  0  0  0  0  0  0  0  0  0  0
  1  5  1  0
  5  6  1  0
  5  9  2  0
  1  2  1  0
  1  3  1  0
  1  4  1  0
  6  7  1  0
  6  8  1  0
 10 14  1  0
 14 15  2  0
 15 17  1  0
 17 18  2  0
 18 20  1  0
 20 14  1  0
 10 11  1  0
 10 12  1  0
 10 13  1  0
 15 16  1  0
 18 19  1  0
 20 21  1  0
M  END
>  <PDB_ID>  (307) 
pdb5gzx

>  <RESIDUE_NAME>  (307) 
GLN   HID

>  <FRAG_NAME>  (307) 
ACEM   MIMD

>  <FRAG_ATOM_NUM>  (307) 
fragi: 9  fragj: 12

>  <atom.prop.CHAIN_ID>  (307) 
A A A A A A A A A Z Z Z Z Z Z Z Z Z Z Z Z

>  <atom.prop.IS_HEAVY_ATOM>  (307) 
1 0 0 0 1 1 0 0 1 1 0 0 0 1 1 0 1 1 0 1 0

>  <DIFUSE_FUNC_ATOM>  (307) 
n/a

>  <FINAL_SINGLE_POINT_ENERGY>  (307) 
0

>  <NONCOV_INTER_ENERGY_QM>  (307) 
0

>  <FF_Energy>  (307) 
8.12

>  <QM_Energy>  (307) 
16.16

>  <source>  (307) 
ACEM_MIMD

>  <Index>  (307) 
37646

$$$$
ACEM-pdb5h3z-A-GLN-1091:MIMD-pdb5h3z-A-HID-1030
     RDKit          3D

 21 20  0  0  0  0  0  0  0  0999 V2000
   -3.1959   -1.9246    2.0809 C   0  0  0  0  0  0  0  0  0  0  0  0
   -4.1690   -2.1252    2.0993 H   0  0  0  0  0  0  0  0  0  0  0  0
   -2.9309   -1.5656    1.1925 H   0  0  0  0  0  0  0  0  0  0  0  0
   -2.9646   -1.1886    2.8510 H   0  0  0  0  0  0  0  0  0  0  0  0
   -2.4372   -3.1925    2.3361 C   0  0  0  0  0  0  0  0  0  0  0  0
   -1.3523   -3.4052    1.6427 N   0  0  0  0  0  0  0  0  0  0  0  0
   -0.7764   -4.2376    1.7709 H   0  0  0  0  0  0  0  0  0  0  0  0
   -1.0644   -2.7090    0.9392 H   0  0  0  0  0  0  0  0  0  0  0  0
   -2.8506   -3.9898    3.1574 O   0  0  0  0  0  0  0  0  0  0  0  0
   -0.1815    2.6307    0.0011 C   0  0  0  0  0  0  0  0  0  0  0  0
    0.2698    2.9909   -0.8244 H   0  0  0  0  0  0  0  0  0  0  0  0
    0.2797    3.0197    0.8079 H   0  0  0  0  0  0  0  0  0  0  0  0
   -1.2231    2.9518    0.0021 H   0  0  0  0  0  0  0  0  0  0  0  0
   -0.0240    1.1653    0.0263 C   0  0  0  0  0  0  0  0  0  0  0  0
    1.0863    0.3993    0.0000 C   0  0  0  0  0  0  0  0  0  0  0  0
    2.0298    0.7186   -0.0109 H   0  0  0  0  0  0  0  0  0  0  0  0
    0.6705   -0.9072   -0.0070 N   0  0  0  0  0  0  0  0  0  0  0  0
   -0.6465   -0.9498   -0.0193 C   0  0  0  0  0  0  0  0  0  0  0  0
   -1.2053   -1.7699   -0.0381 H   0  0  0  0  0  0  0  0  0  0  0  0
   -1.0863    0.2924   -0.0000 N   0  0  0  0  0  0  0  0  0  0  0  0
   -2.0540    0.5646   -0.0056 H   0  0  0  0  0  0  0  0  0  0  0  0
  1  5  1  0
  5  6  1  0
  5  9  2  0
  1  2  1  0
  1  3  1  0
  1  4  1  0
  6  7  1  0
  6  8  1  0
 10 14  1  0
 14 15  2  0
 15 17  1  0
 17 18  2  0
 18 20  1  0
 20 14  1  0
 10 11  1  0
 10 12  1  0
 10 13  1  0
 15 16  1  0
 18 19  1  0
 20 21  1  0
M  END
>  <PDB_ID>  (308) 
pdb5h3z

>  <RESIDUE_NAME>  (308) 
GLN   HID

>  <FRAG_NAME>  (308) 
ACEM   MIMD

>  <FRAG_ATOM_NUM>  (308) 
fragi: 9  fragj: 12

>  <atom.prop.CHAIN_ID>  (308) 
A A A A A A A A A Z Z Z Z Z Z Z Z Z Z Z Z

>  <atom.prop.IS_HEAVY_ATOM>  (308) 
1 0 0 0 1 1 0 0 1 1 0 0 0 1 1 0 1 1 0 1 0

>  <DIFUSE_FUNC_ATOM>  (308) 
n/a

>  <FINAL_SINGLE_POINT_ENERGY>  (308) 
0

>  <NONCOV_INTER_ENERGY_QM>  (308) 
0

>  <FF_Energy>  (308) 
0.44

>  <QM_Energy>  (308) 
6.55

>  <source>  (308) 
ACEM_MIMD

>  <Index>  (308) 
37699

$$$$
ACEM-pdb6hn1-A-GLN-195:MIMD-pdb6hn1-A-HID-241
     RDKit          3D

 21 20  0  0  0  0  0  0  0  0999 V2000
   -5.5604   -1.3115    2.1426 C   0  0  0  0  0  0  0  0  0  0  0  0
   -6.2090   -1.4814    1.4021 H   0  0  0  0  0  0  0  0  0  0  0  0
   -5.8329   -0.4932    2.6460 H   0  0  0  0  0  0  0  0  0  0  0  0
   -5.5602   -2.1651    2.8204 H   0  0  0  0  0  0  0  0  0  0  0  0
   -4.1771   -1.0368    1.5052 C   0  0  0  0  0  0  0  0  0  0  0  0
   -4.0673    0.0414    0.7752 N   0  0  0  0  0  0  0  0  0  0  0  0
   -3.1858    0.2919    0.3373 H   0  0  0  0  0  0  0  0  0  0  0  0
   -4.8855    0.6420    0.6425 H   0  0  0  0  0  0  0  0  0  0  0  0
   -3.2565   -1.8682    1.6411 O   0  0  0  0  0  0  0  0  0  0  0  0
   -0.1239    2.6240    0.0843 C   0  0  0  0  0  0  0  0  0  0  0  0
    0.7839    3.0343    0.1571 H   0  0  0  0  0  0  0  0  0  0  0  0
   -0.6825    2.9034    0.8642 H   0  0  0  0  0  0  0  0  0  0  0  0
   -0.5987    2.9626   -0.8366 H   0  0  0  0  0  0  0  0  0  0  0  0
    0.0131    1.1577    0.0969 C   0  0  0  0  0  0  0  0  0  0  0  0
    1.0954    0.3710    0.0000 C   0  0  0  0  0  0  0  0  0  0  0  0
    2.0512    0.6732   -0.0223 H   0  0  0  0  0  0  0  0  0  0  0  0
    0.6577   -0.9180   -0.0621 N   0  0  0  0  0  0  0  0  0  0  0  0
   -0.6708   -0.9327   -0.0348 C   0  0  0  0  0  0  0  0  0  0  0  0
   -1.2417   -1.7435   -0.0389 H   0  0  0  0  0  0  0  0  0  0  0  0
   -1.0954    0.3219   -0.0000 N   0  0  0  0  0  0  0  0  0  0  0  0
   -2.0388    0.6222   -0.0367 H   0  0  0  0  0  0  0  0  0  0  0  0
  1  5  1  0
  5  6  1  0
  5  9  2  0
  1  2  1  0
  1  3  1  0
  1  4  1  0
  6  7  1  0
  6  8  1  0
 10 14  1  0
 14 15  2  0
 15 17  1  0
 17 18  2  0
 18 20  1  0
 20 14  1  0
 10 11  1  0
 10 12  1  0
 10 13  1  0
 15 16  1  0
 18 19  1  0
 20 21  1  0
M  END
>  <PDB_ID>  (309) 
pdb6hn1

>  <RESIDUE_NAME>  (309) 
GLN   HID

>  <FRAG_NAME>  (309) 
ACEM   MIMD

>  <FRAG_ATOM_NUM>  (309) 
fragi: 9  fragj: 12

>  <atom.prop.CHAIN_ID>  (309) 
A A A A A A A A A Z Z Z Z Z Z Z Z Z Z Z Z

>  <atom.prop.IS_HEAVY_ATOM>  (309) 
1 0 0 0 1 1 0 0 1 1 0 0 0 1 1 0 1 1 0 1 0

>  <DIFUSE_FUNC_ATOM>  (309) 
n/a

>  <FINAL_SINGLE_POINT_ENERGY>  (309) 
0

>  <NONCOV_INTER_ENERGY_QM>  (309) 
0

>  <FF_Energy>  (309) 
5.73

>  <QM_Energy>  (309) 
12.1

>  <source>  (309) 
ACEM_MIMD

>  <Index>  (309) 
37788

$$$$
ACEM-pdb5hlj-A-ASN-54:MIMD-pdb5hlj-A-HID-189
     RDKit          3D

 21 20  0  0  0  0  0  0  0  0999 V2000
   -5.8416    1.5893    0.7107 C   0  0  0  0  0  0  0  0  0  0  0  0
   -6.6928    1.0724    0.6881 H   0  0  0  0  0  0  0  0  0  0  0  0
   -5.9558    2.4583    0.2369 H   0  0  0  0  0  0  0  0  0  0  0  0
   -5.5952    1.7976    1.7519 H   0  0  0  0  0  0  0  0  0  0  0  0
   -4.7670    0.7875    0.0053 C   0  0  0  0  0  0  0  0  0  0  0  0
   -3.5923    1.3821   -0.1535 N   0  0  0  0  0  0  0  0  0  0  0  0
   -3.4524    2.3115    0.1925 H   0  0  0  0  0  0  0  0  0  0  0  0
   -2.8454    0.9057   -0.6167 H   0  0  0  0  0  0  0  0  0  0  0  0
   -4.9862   -0.3542   -0.3829 O   0  0  0  0  0  0  0  0  0  0  0  0
   -0.1776    2.6541   -0.0271 C   0  0  0  0  0  0  0  0  0  0  0  0
   -0.5646    2.9172   -0.9174 H   0  0  0  0  0  0  0  0  0  0  0  0
    0.7329    3.0715    0.0621 H   0  0  0  0  0  0  0  0  0  0  0  0
   -0.8214    3.0307    0.7678 H   0  0  0  0  0  0  0  0  0  0  0  0
   -0.0160    1.1669   -0.0065 C   0  0  0  0  0  0  0  0  0  0  0  0
    1.0931    0.3875   -0.0000 C   0  0  0  0  0  0  0  0  0  0  0  0
    2.0384    0.7034    0.0011 H   0  0  0  0  0  0  0  0  0  0  0  0
    0.6707   -0.9179    0.0061 N   0  0  0  0  0  0  0  0  0  0  0  0
   -0.6547   -0.9406    0.0004 C   0  0  0  0  0  0  0  0  0  0  0  0
   -1.2196   -1.7599   -0.0017 H   0  0  0  0  0  0  0  0  0  0  0  0
   -1.0931    0.3042   -0.0000 N   0  0  0  0  0  0  0  0  0  0  0  0
   -2.0533    0.5829    0.0029 H   0  0  0  0  0  0  0  0  0  0  0  0
  1  5  1  0
  5  6  1  0
  5  9  2  0
  1  2  1  0
  1  3  1  0
  1  4  1  0
  6  7  1  0
  6  8  1  0
 10 14  1  0
 14 15  2  0
 15 17  1  0
 17 18  2  0
 18 20  1  0
 20 14  1  0
 10 11  1  0
 10 12  1  0
 10 13  1  0
 15 16  1  0
 18 19  1  0
 20 21  1  0
M  END
>  <PDB_ID>  (310) 
pdb5hlj

>  <RESIDUE_NAME>  (310) 
ASN   HID

>  <FRAG_NAME>  (310) 
ACEM   MIMD

>  <FRAG_ATOM_NUM>  (310) 
fragi: 9  fragj: 12

>  <atom.prop.CHAIN_ID>  (310) 
A A A A A A A A A Z Z Z Z Z Z Z Z Z Z Z Z

>  <atom.prop.IS_HEAVY_ATOM>  (310) 
1 0 0 0 1 1 0 0 1 1 0 0 0 1 1 0 1 1 0 1 0

>  <DIFUSE_FUNC_ATOM>  (310) 
n/a

>  <FINAL_SINGLE_POINT_ENERGY>  (310) 
0

>  <NONCOV_INTER_ENERGY_QM>  (310) 
0

>  <FF_Energy>  (310) 
10.05

>  <QM_Energy>  (310) 
23.79

>  <source>  (310) 
ACEM_MIMD

>  <Index>  (310) 
37980

$$$$
ACEM-pdb6idy-C-ASN-115:MIMD-pdb6idy-C-HID-148
     RDKit          3D

 21 20  0  0  0  0  0  0  0  0999 V2000
   -4.5820    3.1799    2.2805 C   0  0  0  0  0  0  0  0  0  0  0  0
   -4.5072    4.1380    2.5731 H   0  0  0  0  0  0  0  0  0  0  0  0
   -4.2017    2.5914    2.9999 H   0  0  0  0  0  0  0  0  0  0  0  0
   -5.6386    2.9389    2.1641 H   0  0  0  0  0  0  0  0  0  0  0  0
   -3.7631    2.9956    1.0264 C   0  0  0  0  0  0  0  0  0  0  0  0
   -3.3925    1.7608    0.7300 N   0  0  0  0  0  0  0  0  0  0  0  0
   -3.6647    1.0017    1.3279 H   0  0  0  0  0  0  0  0  0  0  0  0
   -2.8449    1.5782   -0.0856 H   0  0  0  0  0  0  0  0  0  0  0  0
   -3.4753    3.9474    0.2968 O   0  0  0  0  0  0  0  0  0  0  0  0
   -0.0825    2.6483    0.0030 C   0  0  0  0  0  0  0  0  0  0  0  0
   -0.8694    2.9247   -0.5460 H   0  0  0  0  0  0  0  0  0  0  0  0
    0.7533    3.0294   -0.3887 H   0  0  0  0  0  0  0  0  0  0  0  0
   -0.2049    3.0371    1.0140 H   0  0  0  0  0  0  0  0  0  0  0  0
    0.0172    1.1491   -0.0255 C   0  0  0  0  0  0  0  0  0  0  0  0
    1.1122    0.3527   -0.0000 C   0  0  0  0  0  0  0  0  0  0  0  0
    2.0605    0.6435    0.0033 H   0  0  0  0  0  0  0  0  0  0  0  0
    0.6567   -0.9511    0.0216 N   0  0  0  0  0  0  0  0  0  0  0  0
   -0.6739   -0.9008    0.0039 C   0  0  0  0  0  0  0  0  0  0  0  0
   -1.2714   -1.7180   -0.0043 H   0  0  0  0  0  0  0  0  0  0  0  0
   -1.1122    0.3501   -0.0000 N   0  0  0  0  0  0  0  0  0  0  0  0
   -2.0410    0.6517    0.0124 H   0  0  0  0  0  0  0  0  0  0  0  0
  1  5  1  0
  5  6  1  0
  5  9  2  0
  1  2  1  0
  1  3  1  0
  1  4  1  0
  6  7  1  0
  6  8  1  0
 10 14  1  0
 14 15  2  0
 15 17  1  0
 17 18  2  0
 18 20  1  0
 20 14  1  0
 10 11  1  0
 10 12  1  0
 10 13  1  0
 15 16  1  0
 18 19  1  0
 20 21  1  0
M  END
>  <PDB_ID>  (311) 
pdb6idy

>  <RESIDUE_NAME>  (311) 
ASN   HID

>  <FRAG_NAME>  (311) 
ACEM   MIMD

>  <FRAG_ATOM_NUM>  (311) 
fragi: 9  fragj: 12

>  <atom.prop.CHAIN_ID>  (311) 
A A A A A A A A A Z Z Z Z Z Z Z Z Z Z Z Z

>  <atom.prop.IS_HEAVY_ATOM>  (311) 
1 0 0 0 1 1 0 0 1 1 0 0 0 1 1 0 1 1 0 1 0

>  <DIFUSE_FUNC_ATOM>  (311) 
n/a

>  <FINAL_SINGLE_POINT_ENERGY>  (311) 
0

>  <NONCOV_INTER_ENERGY_QM>  (311) 
0

>  <FF_Energy>  (311) 
6.92

>  <QM_Energy>  (311) 
15.43

>  <source>  (311) 
ACEM_MIMD

>  <Index>  (311) 
38237

$$$$
ACEM-pdb6ikx-B-GLN-102:MIMD-pdb6ikx-B-HID-110
     RDKit          3D

 21 20  0  0  0  0  0  0  0  0999 V2000
   -4.8116   -0.2064   -0.6947 C   0  0  0  0  0  0  0  0  0  0  0  0
   -5.2522   -0.5427    0.1472 H   0  0  0  0  0  0  0  0  0  0  0  0
   -3.8612   -0.5409   -0.7076 H   0  0  0  0  0  0  0  0  0  0  0  0
   -5.3355   -0.6368   -1.5482 H   0  0  0  0  0  0  0  0  0  0  0  0
   -4.7965    1.3006   -0.6661 C   0  0  0  0  0  0  0  0  0  0  0  0
   -3.6229    1.8642   -0.4460 N   0  0  0  0  0  0  0  0  0  0  0  0
   -3.5239    2.8845   -0.4252 H   0  0  0  0  0  0  0  0  0  0  0  0
   -2.8071    1.2732   -0.2947 H   0  0  0  0  0  0  0  0  0  0  0  0
   -5.8272    1.9568   -0.8477 O   0  0  0  0  0  0  0  0  0  0  0  0
   -0.1675    2.6231    0.0278 C   0  0  0  0  0  0  0  0  0  0  0  0
    0.4810    3.0312    0.6622 H   0  0  0  0  0  0  0  0  0  0  0  0
   -1.0992    2.8530    0.2939 H   0  0  0  0  0  0  0  0  0  0  0  0
    0.0210    3.0155   -0.9715 H   0  0  0  0  0  0  0  0  0  0  0  0
   -0.0073    1.1547    0.0504 C   0  0  0  0  0  0  0  0  0  0  0  0
    1.0915    0.3839   -0.0000 C   0  0  0  0  0  0  0  0  0  0  0  0
    2.0412    0.6990   -0.0066 H   0  0  0  0  0  0  0  0  0  0  0  0
    0.6722   -0.9149   -0.0395 N   0  0  0  0  0  0  0  0  0  0  0  0
   -0.6649   -0.9338   -0.0109 C   0  0  0  0  0  0  0  0  0  0  0  0
   -1.2256   -1.7522    0.0007 H   0  0  0  0  0  0  0  0  0  0  0  0
   -1.0915    0.3100    0.0000 N   0  0  0  0  0  0  0  0  0  0  0  0
   -2.0481    0.5994   -0.0251 H   0  0  0  0  0  0  0  0  0  0  0  0
  1  5  1  0
  5  6  1  0
  5  9  2  0
  1  2  1  0
  1  3  1  0
  1  4  1  0
  6  7  1  0
  6  8  1  0
 10 14  1  0
 14 15  2  0
 15 17  1  0
 17 18  2  0
 18 20  1  0
 20 14  1  0
 10 11  1  0
 10 12  1  0
 10 13  1  0
 15 16  1  0
 18 19  1  0
 20 21  1  0
M  END
>  <PDB_ID>  (312) 
pdb6ikx

>  <RESIDUE_NAME>  (312) 
GLN   HID

>  <FRAG_NAME>  (312) 
ACEM   MIMD

>  <FRAG_ATOM_NUM>  (312) 
fragi: 9  fragj: 12

>  <atom.prop.CHAIN_ID>  (312) 
A A A A A A A A A Z Z Z Z Z Z Z Z Z Z Z Z

>  <atom.prop.IS_HEAVY_ATOM>  (312) 
1 0 0 0 1 1 0 0 1 1 0 0 0 1 1 0 1 1 0 1 0

>  <DIFUSE_FUNC_ATOM>  (312) 
n/a

>  <FINAL_SINGLE_POINT_ENERGY>  (312) 
0

>  <NONCOV_INTER_ENERGY_QM>  (312) 
0

>  <FF_Energy>  (312) 
9.55

>  <QM_Energy>  (312) 
22.09

>  <source>  (312) 
ACEM_MIMD

>  <Index>  (312) 
38403

$$$$
ACEM-pdb5i5i-A-GLN-463:MIMD-pdb5i5i-A-HID-419
     RDKit          3D

 21 20  0  0  0  0  0  0  0  0999 V2000
   -5.7048    2.8208    0.8912 C   0  0  0  0  0  0  0  0  0  0  0  0
   -5.9448    2.4155    0.0059 H   0  0  0  0  0  0  0  0  0  0  0  0
   -5.6615    3.8184    0.7926 H   0  0  0  0  0  0  0  0  0  0  0  0
   -6.4756    2.5682    1.6193 H   0  0  0  0  0  0  0  0  0  0  0  0
   -4.3280    2.3204    1.2854 C   0  0  0  0  0  0  0  0  0  0  0  0
   -3.9345    1.2524    0.6269 N   0  0  0  0  0  0  0  0  0  0  0  0
   -2.9971    0.8433    0.8178 H   0  0  0  0  0  0  0  0  0  0  0  0
   -4.5387    0.8275   -0.0631 H   0  0  0  0  0  0  0  0  0  0  0  0
   -3.6470    2.8588    2.1765 O   0  0  0  0  0  0  0  0  0  0  0  0
   -0.1983    2.6469   -0.0349 C   0  0  0  0  0  0  0  0  0  0  0  0
   -1.1443    2.8586   -0.2943 H   0  0  0  0  0  0  0  0  0  0  0  0
    0.4223    3.0470   -0.7139 H   0  0  0  0  0  0  0  0  0  0  0  0
    0.0097    3.0911    0.9385 H   0  0  0  0  0  0  0  0  0  0  0  0
   -0.0226    1.1661   -0.0475 C   0  0  0  0  0  0  0  0  0  0  0  0
    1.0894    0.3929   -0.0000 C   0  0  0  0  0  0  0  0  0  0  0  0
    2.0327    0.7107    0.0196 H   0  0  0  0  0  0  0  0  0  0  0  0
    0.6708   -0.9182    0.0179 N   0  0  0  0  0  0  0  0  0  0  0  0
   -0.6482   -0.9446    0.0295 C   0  0  0  0  0  0  0  0  0  0  0  0
   -1.2152   -1.7614    0.0573 H   0  0  0  0  0  0  0  0  0  0  0  0
   -1.0894    0.3038    0.0000 N   0  0  0  0  0  0  0  0  0  0  0  0
   -2.0536    0.5749    0.0102 H   0  0  0  0  0  0  0  0  0  0  0  0
  1  5  1  0
  5  6  1  0
  5  9  2  0
  1  2  1  0
  1  3  1  0
  1  4  1  0
  6  7  1  0
  6  8  1  0
 10 14  1  0
 14 15  2  0
 15 17  1  0
 17 18  2  0
 18 20  1  0
 20 14  1  0
 10 11  1  0
 10 12  1  0
 10 13  1  0
 15 16  1  0
 18 19  1  0
 20 21  1  0
M  END
>  <PDB_ID>  (313) 
pdb5i5i

>  <RESIDUE_NAME>  (313) 
GLN   HID

>  <FRAG_NAME>  (313) 
ACEM   MIMD

>  <FRAG_ATOM_NUM>  (313) 
fragi: 9  fragj: 12

>  <atom.prop.CHAIN_ID>  (313) 
A A A A A A A A A Z Z Z Z Z Z Z Z Z Z Z Z

>  <atom.prop.IS_HEAVY_ATOM>  (313) 
1 0 0 0 1 1 0 0 1 1 0 0 0 1 1 0 1 1 0 1 0

>  <DIFUSE_FUNC_ATOM>  (313) 
n/a

>  <FINAL_SINGLE_POINT_ENERGY>  (313) 
0

>  <NONCOV_INTER_ENERGY_QM>  (313) 
0

>  <FF_Energy>  (313) 
4.78

>  <QM_Energy>  (313) 
10.5

>  <source>  (313) 
ACEM_MIMD

>  <Index>  (313) 
38434

$$$$
ACEM-pdb6ik9-A-GLN-524:MIMD-pdb6ik9-A-HID-483
     RDKit          3D

 21 20  0  0  0  0  0  0  0  0999 V2000
   -4.5628   -1.6504    1.9835 C   0  0  0  0  0  0  0  0  0  0  0  0
   -4.3386   -2.4257    2.5730 H   0  0  0  0  0  0  0  0  0  0  0  0
   -4.7655   -1.9782    1.0611 H   0  0  0  0  0  0  0  0  0  0  0  0
   -5.4440   -1.1471    2.3813 H   0  0  0  0  0  0  0  0  0  0  0  0
   -3.3697   -0.7323    1.9196 C   0  0  0  0  0  0  0  0  0  0  0  0
   -3.4076    0.2277    1.0020 N   0  0  0  0  0  0  0  0  0  0  0  0
   -2.6445    0.8950    0.9075 H   0  0  0  0  0  0  0  0  0  0  0  0
   -4.2184    0.2871    0.3864 H   0  0  0  0  0  0  0  0  0  0  0  0
   -2.4149   -0.8883    2.6794 O   0  0  0  0  0  0  0  0  0  0  0  0
   -0.1773    2.6557    0.0090 C   0  0  0  0  0  0  0  0  0  0  0  0
   -0.6496    2.9287   -0.8382 H   0  0  0  0  0  0  0  0  0  0  0  0
    0.7402    3.0721    0.0075 H   0  0  0  0  0  0  0  0  0  0  0  0
   -0.7355    3.0376    0.8638 H   0  0  0  0  0  0  0  0  0  0  0  0
   -0.0185    1.1676    0.0004 C   0  0  0  0  0  0  0  0  0  0  0  0
    1.0909    0.3912   -0.0000 C   0  0  0  0  0  0  0  0  0  0  0  0
    2.0355    0.7057    0.0015 H   0  0  0  0  0  0  0  0  0  0  0  0
    0.6689   -0.9178   -0.0019 N   0  0  0  0  0  0  0  0  0  0  0  0
   -0.6505   -0.9434    0.0015 C   0  0  0  0  0  0  0  0  0  0  0  0
   -1.2170   -1.7623    0.0053 H   0  0  0  0  0  0  0  0  0  0  0  0
   -1.0909    0.3025   -0.0000 N   0  0  0  0  0  0  0  0  0  0  0  0
   -2.0531    0.5768   -0.0018 H   0  0  0  0  0  0  0  0  0  0  0  0
  1  5  1  0
  5  6  1  0
  5  9  2  0
  1  2  1  0
  1  3  1  0
  1  4  1  0
  6  7  1  0
  6  8  1  0
 10 14  1  0
 14 15  2  0
 15 17  1  0
 17 18  2  0
 18 20  1  0
 20 14  1  0
 10 11  1  0
 10 12  1  0
 10 13  1  0
 15 16  1  0
 18 19  1  0
 20 21  1  0
M  END
>  <PDB_ID>  (314) 
pdb6ik9

>  <RESIDUE_NAME>  (314) 
GLN   HID

>  <FRAG_NAME>  (314) 
ACEM   MIMD

>  <FRAG_ATOM_NUM>  (314) 
fragi: 9  fragj: 12

>  <atom.prop.CHAIN_ID>  (314) 
A A A A A A A A A Z Z Z Z Z Z Z Z Z Z Z Z

>  <atom.prop.IS_HEAVY_ATOM>  (314) 
1 0 0 0 1 1 0 0 1 1 0 0 0 1 1 0 1 1 0 1 0

>  <DIFUSE_FUNC_ATOM>  (314) 
n/a

>  <FINAL_SINGLE_POINT_ENERGY>  (314) 
0

>  <NONCOV_INTER_ENERGY_QM>  (314) 
0

>  <FF_Energy>  (314) 
22.1

>  <QM_Energy>  (314) 
28.7

>  <source>  (314) 
ACEM_MIMD

>  <Index>  (314) 
38517

$$$$
ACEM-pdb6iv8-A-ASN-460:MIMD-pdb6iv8-A-HID-464
     RDKit          3D

 21 20  0  0  0  0  0  0  0  0999 V2000
   -5.2160   -1.7016   -1.7349 C   0  0  0  0  0  0  0  0  0  0  0  0
   -5.7294   -2.5138   -1.4494 H   0  0  0  0  0  0  0  0  0  0  0  0
   -5.5319   -1.4151   -2.6423 H   0  0  0  0  0  0  0  0  0  0  0  0
   -5.4287   -0.8979   -1.0299 H   0  0  0  0  0  0  0  0  0  0  0  0
   -3.7495   -2.0682   -1.8292 C   0  0  0  0  0  0  0  0  0  0  0  0
   -2.9737   -1.7350   -0.8184 N   0  0  0  0  0  0  0  0  0  0  0  0
   -3.3720   -1.2604   -0.0242 H   0  0  0  0  0  0  0  0  0  0  0  0
   -1.9996   -1.9475   -0.8300 H   0  0  0  0  0  0  0  0  0  0  0  0
   -3.3100   -2.6317   -2.8135 O   0  0  0  0  0  0  0  0  0  0  0  0
   -0.1967    2.6186   -0.0325 C   0  0  0  0  0  0  0  0  0  0  0  0
   -0.9357    2.8487   -0.6719 H   0  0  0  0  0  0  0  0  0  0  0  0
    0.6551    3.0383   -0.3593 H   0  0  0  0  0  0  0  0  0  0  0  0
   -0.4377    3.0234    0.9504 H   0  0  0  0  0  0  0  0  0  0  0  0
   -0.0241    1.1466   -0.0186 C   0  0  0  0  0  0  0  0  0  0  0  0
    1.0789    0.3859   -0.0000 C   0  0  0  0  0  0  0  0  0  0  0  0
    2.0255    0.7127    0.0051 H   0  0  0  0  0  0  0  0  0  0  0  0
    0.6647   -0.8950    0.0119 N   0  0  0  0  0  0  0  0  0  0  0  0
   -0.6407   -0.9307    0.0067 C   0  0  0  0  0  0  0  0  0  0  0  0
   -1.2032   -1.7595    0.0093 H   0  0  0  0  0  0  0  0  0  0  0  0
   -1.0789    0.2933    0.0000 N   0  0  0  0  0  0  0  0  0  0  0  0
   -2.0485    0.5674    0.0066 H   0  0  0  0  0  0  0  0  0  0  0  0
  1  5  1  0
  5  6  1  0
  5  9  2  0
  1  2  1  0
  1  3  1  0
  1  4  1  0
  6  7  1  0
  6  8  1  0
 10 14  1  0
 14 15  2  0
 15 17  1  0
 17 18  2  0
 18 20  1  0
 20 14  1  0
 10 11  1  0
 10 12  1  0
 10 13  1  0
 15 16  1  0
 18 19  1  0
 20 21  1  0
M  END
>  <PDB_ID>  (315) 
pdb6iv8

>  <RESIDUE_NAME>  (315) 
ASN   HID

>  <FRAG_NAME>  (315) 
ACEM   MIMD

>  <FRAG_ATOM_NUM>  (315) 
fragi: 9  fragj: 12

>  <atom.prop.CHAIN_ID>  (315) 
A A A A A A A A A Z Z Z Z Z Z Z Z Z Z Z Z

>  <atom.prop.IS_HEAVY_ATOM>  (315) 
1 0 0 0 1 1 0 0 1 1 0 0 0 1 1 0 1 1 0 1 0

>  <DIFUSE_FUNC_ATOM>  (315) 
n/a

>  <FINAL_SINGLE_POINT_ENERGY>  (315) 
0

>  <NONCOV_INTER_ENERGY_QM>  (315) 
0

>  <FF_Energy>  (315) 
14.63

>  <QM_Energy>  (315) 
23.68

>  <source>  (315) 
ACEM_MIMD

>  <Index>  (315) 
38614

$$$$
ACEM-pdb5im2-A-ASN-293:MIMD-pdb5im2-A-HID-226
     RDKit          3D

 21 20  0  0  0  0  0  0  0  0999 V2000
   -3.4272   -2.3966   -0.4031 C   0  0  0  0  0  0  0  0  0  0  0  0
   -3.1965   -2.1843   -1.3211 H   0  0  0  0  0  0  0  0  0  0  0  0
   -3.1002   -1.7034    0.1904 H   0  0  0  0  0  0  0  0  0  0  0  0
   -4.5119   -2.4581   -0.3151 H   0  0  0  0  0  0  0  0  0  0  0  0
   -2.7349   -3.6922   -0.0358 C   0  0  0  0  0  0  0  0  0  0  0  0
   -1.4003   -3.6968   -0.0898 N   0  0  0  0  0  0  0  0  0  0  0  0
   -0.9644   -4.4103    0.1104 H   0  0  0  0  0  0  0  0  0  0  0  0
   -0.9769   -2.9865   -0.3251 H   0  0  0  0  0  0  0  0  0  0  0  0
   -3.3870   -4.6778    0.3027 O   0  0  0  0  0  0  0  0  0  0  0  0
   -0.1632    2.6558   -0.0208 C   0  0  0  0  0  0  0  0  0  0  0  0
   -0.9523    2.8653   -0.5444 H   0  0  0  0  0  0  0  0  0  0  0  0
    0.6247    3.0288   -0.4462 H   0  0  0  0  0  0  0  0  0  0  0  0
   -0.2707    3.0947    0.9711 H   0  0  0  0  0  0  0  0  0  0  0  0
   -0.0112    1.1676    0.0099 C   0  0  0  0  0  0  0  0  0  0  0  0
    1.0897    0.3869    0.0000 C   0  0  0  0  0  0  0  0  0  0  0  0
    1.9723    0.6795    0.0032 H   0  0  0  0  0  0  0  0  0  0  0  0
    0.6648   -0.9177    0.0016 N   0  0  0  0  0  0  0  0  0  0  0  0
   -0.6536   -0.9424   -0.0115 C   0  0  0  0  0  0  0  0  0  0  0  0
   -1.1859   -1.7059   -0.0042 H   0  0  0  0  0  0  0  0  0  0  0  0
   -1.0897    0.3056    0.0000 N   0  0  0  0  0  0  0  0  0  0  0  0
   -1.9161    0.5439   -0.0088 H   0  0  0  0  0  0  0  0  0  0  0  0
  1  5  1  0
  5  6  1  0
  5  9  2  0
  1  2  1  0
  1  3  1  0
  1  4  1  0
  6  7  1  0
  6  8  1  0
 10 14  1  0
 14 15  2  0
 15 17  1  0
 17 18  2  0
 18 20  1  0
 20 14  1  0
 10 11  1  0
 10 12  1  0
 10 13  1  0
 15 16  1  0
 18 19  1  0
 20 21  1  0
M  END
>  <PDB_ID>  (316) 
pdb5im2

>  <RESIDUE_NAME>  (316) 
ASN   HID

>  <FRAG_NAME>  (316) 
ACEM   MIMD

>  <FRAG_ATOM_NUM>  (316) 
fragi: 9  fragj: 12

>  <atom.prop.CHAIN_ID>  (316) 
A A A A A A A A A Z Z Z Z Z Z Z Z Z Z Z Z

>  <atom.prop.IS_HEAVY_ATOM>  (316) 
1 0 0 0 1 1 0 0 1 1 0 0 0 1 1 0 1 1 0 1 0

>  <DIFUSE_FUNC_ATOM>  (316) 
n/a

>  <FINAL_SINGLE_POINT_ENERGY>  (316) 
0

>  <NONCOV_INTER_ENERGY_QM>  (316) 
0

>  <FF_Energy>  (316) 
4.46

>  <QM_Energy>  (316) 
10.2

>  <source>  (316) 
ACEM_MIMD

>  <Index>  (316) 
38706

$$$$
ACEM-pdb6j13-D-ASN-145:MIMD-pdb6j13-C-HID-141
     RDKit          3D

 21 20  0  0  0  0  0  0  0  0999 V2000
   -5.7879    1.3564    0.3058 C   0  0  0  0  0  0  0  0  0  0  0  0
   -6.4843    0.7454    0.6411 H   0  0  0  0  0  0  0  0  0  0  0  0
   -6.1316    1.9560   -0.3971 H   0  0  0  0  0  0  0  0  0  0  0  0
   -5.4263    1.9634    1.1358 H   0  0  0  0  0  0  0  0  0  0  0  0
   -4.6504    0.5338   -0.2667 C   0  0  0  0  0  0  0  0  0  0  0  0
   -3.5643    1.1796   -0.6691 N   0  0  0  0  0  0  0  0  0  0  0  0
   -3.5323    2.1816   -0.5755 H   0  0  0  0  0  0  0  0  0  0  0  0
   -2.7940    0.6869   -1.0553 H   0  0  0  0  0  0  0  0  0  0  0  0
   -4.8007   -0.6828   -0.4010 O   0  0  0  0  0  0  0  0  0  0  0  0
   -0.2068    2.6164   -0.0510 C   0  0  0  0  0  0  0  0  0  0  0  0
   -0.9420    2.8509   -0.6887 H   0  0  0  0  0  0  0  0  0  0  0  0
    0.6434    3.0500   -0.3531 H   0  0  0  0  0  0  0  0  0  0  0  0
   -0.4633    3.0030    0.9353 H   0  0  0  0  0  0  0  0  0  0  0  0
   -0.0228    1.1496   -0.0452 C   0  0  0  0  0  0  0  0  0  0  0  0
    1.0803    0.3929   -0.0000 C   0  0  0  0  0  0  0  0  0  0  0  0
    2.0275    0.7174    0.0131 H   0  0  0  0  0  0  0  0  0  0  0  0
    0.6723   -0.9032    0.0260 N   0  0  0  0  0  0  0  0  0  0  0  0
   -0.6495   -0.9383    0.0192 C   0  0  0  0  0  0  0  0  0  0  0  0
   -1.2082   -1.7599    0.0281 H   0  0  0  0  0  0  0  0  0  0  0  0
   -1.0803    0.2990   -0.0000 N   0  0  0  0  0  0  0  0  0  0  0  0
   -2.0492    0.5748    0.0154 H   0  0  0  0  0  0  0  0  0  0  0  0
  1  5  1  0
  5  6  1  0
  5  9  2  0
  1  2  1  0
  1  3  1  0
  1  4  1  0
  6  7  1  0
  6  8  1  0
 10 14  1  0
 14 15  2  0
 15 17  1  0
 17 18  2  0
 18 20  1  0
 20 14  1  0
 10 11  1  0
 10 12  1  0
 10 13  1  0
 15 16  1  0
 18 19  1  0
 20 21  1  0
M  END
>  <PDB_ID>  (317) 
pdb6j13

>  <RESIDUE_NAME>  (317) 
ASN   HID

>  <FRAG_NAME>  (317) 
ACEM   MIMD

>  <FRAG_ATOM_NUM>  (317) 
fragi: 9  fragj: 12

>  <atom.prop.CHAIN_ID>  (317) 
A A A A A A A A A Z Z Z Z Z Z Z Z Z Z Z Z

>  <atom.prop.IS_HEAVY_ATOM>  (317) 
1 0 0 0 1 1 0 0 1 1 0 0 0 1 1 0 1 1 0 1 0

>  <DIFUSE_FUNC_ATOM>  (317) 
n/a

>  <FINAL_SINGLE_POINT_ENERGY>  (317) 
0

>  <NONCOV_INTER_ENERGY_QM>  (317) 
0

>  <FF_Energy>  (317) 
5.98

>  <QM_Energy>  (317) 
11.86

>  <source>  (317) 
ACEM_MIMD

>  <Index>  (317) 
38723

$$$$
ACEM-pdb5isw-A-ASN-743:MIMD-pdb5isw-A-HID-746
     RDKit          3D

 21 20  0  0  0  0  0  0  0  0999 V2000
   -1.2791   -5.9652    1.4203 C   0  0  0  0  0  0  0  0  0  0  0  0
   -0.5547   -6.2403    2.0455 H   0  0  0  0  0  0  0  0  0  0  0  0
   -1.4819   -6.7015    0.7815 H   0  0  0  0  0  0  0  0  0  0  0  0
   -2.1767   -5.7605    2.0037 H   0  0  0  0  0  0  0  0  0  0  0  0
   -0.7793   -4.7497    0.6101 C   0  0  0  0  0  0  0  0  0  0  0  0
   -1.2207   -3.5604    1.0111 N   0  0  0  0  0  0  0  0  0  0  0  0
   -1.8344   -3.4940    1.7988 H   0  0  0  0  0  0  0  0  0  0  0  0
   -0.9399   -2.7329    0.5268 H   0  0  0  0  0  0  0  0  0  0  0  0
   -0.0169   -4.8773   -0.3486 O   0  0  0  0  0  0  0  0  0  0  0  0
   -0.1888    2.6553    0.0042 C   0  0  0  0  0  0  0  0  0  0  0  0
   -0.9102    2.8814   -0.6556 H   0  0  0  0  0  0  0  0  0  0  0  0
    0.6739    3.0655   -0.3021 H   0  0  0  0  0  0  0  0  0  0  0  0
   -0.4529    3.0662    0.9786 H   0  0  0  0  0  0  0  0  0  0  0  0
   -0.0206    1.1679    0.0256 C   0  0  0  0  0  0  0  0  0  0  0  0
    1.0916    0.3913   -0.0000 C   0  0  0  0  0  0  0  0  0  0  0  0
    2.0344    0.7082   -0.0055 H   0  0  0  0  0  0  0  0  0  0  0  0
    0.6707   -0.9177   -0.0164 N   0  0  0  0  0  0  0  0  0  0  0  0
   -0.6501   -0.9433   -0.0092 C   0  0  0  0  0  0  0  0  0  0  0  0
   -1.2158   -1.7630   -0.0091 H   0  0  0  0  0  0  0  0  0  0  0  0
   -1.0916    0.3018   -0.0000 N   0  0  0  0  0  0  0  0  0  0  0  0
   -2.0537    0.5759   -0.0114 H   0  0  0  0  0  0  0  0  0  0  0  0
  1  5  1  0
  5  6  1  0
  5  9  2  0
  1  2  1  0
  1  3  1  0
  1  4  1  0
  6  7  1  0
  6  8  1  0
 10 14  1  0
 14 15  2  0
 15 17  1  0
 17 18  2  0
 18 20  1  0
 20 14  1  0
 10 11  1  0
 10 12  1  0
 10 13  1  0
 15 16  1  0
 18 19  1  0
 20 21  1  0
M  END
>  <PDB_ID>  (318) 
pdb5isw

>  <RESIDUE_NAME>  (318) 
ASN   HID

>  <FRAG_NAME>  (318) 
ACEM   MIMD

>  <FRAG_ATOM_NUM>  (318) 
fragi: 9  fragj: 12

>  <atom.prop.CHAIN_ID>  (318) 
A A A A A A A A A Z Z Z Z Z Z Z Z Z Z Z Z

>  <atom.prop.IS_HEAVY_ATOM>  (318) 
1 0 0 0 1 1 0 0 1 1 0 0 0 1 1 0 1 1 0 1 0

>  <DIFUSE_FUNC_ATOM>  (318) 
n/a

>  <FINAL_SINGLE_POINT_ENERGY>  (318) 
0

>  <NONCOV_INTER_ENERGY_QM>  (318) 
0

>  <FF_Energy>  (318) 
6.44

>  <QM_Energy>  (318) 
18.89

>  <source>  (318) 
ACEM_MIMD

>  <Index>  (318) 
38850

$$$$
ACEM-pdb6jkk-A-GLN-1284:MIMD-pdb6jkk-A-HID-1280
     RDKit          3D

 21 20  0  0  0  0  0  0  0  0999 V2000
   -4.6609   -0.6879   -2.1706 C   0  0  0  0  0  0  0  0  0  0  0  0
   -4.5142   -1.5586   -2.6317 H   0  0  0  0  0  0  0  0  0  0  0  0
   -3.8658   -0.0997   -2.2869 H   0  0  0  0  0  0  0  0  0  0  0  0
   -5.5295   -0.1980   -2.6109 H   0  0  0  0  0  0  0  0  0  0  0  0
   -4.8588   -0.9496   -0.6919 C   0  0  0  0  0  0  0  0  0  0  0  0
   -3.9096   -0.5134    0.1290 N   0  0  0  0  0  0  0  0  0  0  0  0
   -3.9825   -0.6414    1.1320 H   0  0  0  0  0  0  0  0  0  0  0  0
   -3.0960   -0.0429   -0.2706 H   0  0  0  0  0  0  0  0  0  0  0  0
   -5.8707   -1.5204   -0.2919 O   0  0  0  0  0  0  0  0  0  0  0  0
   -0.1800    2.6598   -0.0025 C   0  0  0  0  0  0  0  0  0  0  0  0
    0.7219    3.0723    0.1719 H   0  0  0  0  0  0  0  0  0  0  0  0
   -0.7930    2.9061    0.7578 H   0  0  0  0  0  0  0  0  0  0  0  0
   -0.5837    3.0697   -0.9283 H   0  0  0  0  0  0  0  0  0  0  0  0
   -0.0192    1.1669   -0.0098 C   0  0  0  0  0  0  0  0  0  0  0  0
    1.0912    0.3909    0.0000 C   0  0  0  0  0  0  0  0  0  0  0  0
    2.0346    0.7070    0.0021 H   0  0  0  0  0  0  0  0  0  0  0  0
    0.6699   -0.9165    0.0072 N   0  0  0  0  0  0  0  0  0  0  0  0
   -0.6507   -0.9440    0.0026 C   0  0  0  0  0  0  0  0  0  0  0  0
   -1.2164   -1.7621    0.0027 H   0  0  0  0  0  0  0  0  0  0  0  0
   -1.0912    0.3028   -0.0000 N   0  0  0  0  0  0  0  0  0  0  0  0
   -2.0531    0.5768    0.0038 H   0  0  0  0  0  0  0  0  0  0  0  0
  1  5  1  0
  5  6  1  0
  5  9  2  0
  1  2  1  0
  1  3  1  0
  1  4  1  0
  6  7  1  0
  6  8  1  0
 10 14  1  0
 14 15  2  0
 15 17  1  0
 17 18  2  0
 18 20  1  0
 20 14  1  0
 10 11  1  0
 10 12  1  0
 10 13  1  0
 15 16  1  0
 18 19  1  0
 20 21  1  0
M  END
>  <PDB_ID>  (319) 
pdb6jkk

>  <RESIDUE_NAME>  (319) 
GLN   HID

>  <FRAG_NAME>  (319) 
ACEM   MIMD

>  <FRAG_ATOM_NUM>  (319) 
fragi: 9  fragj: 12

>  <atom.prop.CHAIN_ID>  (319) 
A A A A A A A A A Z Z Z Z Z Z Z Z Z Z Z Z

>  <atom.prop.IS_HEAVY_ATOM>  (319) 
1 0 0 0 1 1 0 0 1 1 0 0 0 1 1 0 1 1 0 1 0

>  <DIFUSE_FUNC_ATOM>  (319) 
n/a

>  <FINAL_SINGLE_POINT_ENERGY>  (319) 
0

>  <NONCOV_INTER_ENERGY_QM>  (319) 
0

>  <FF_Energy>  (319) 
7.01

>  <QM_Energy>  (319) 
12.85

>  <source>  (319) 
ACEM_MIMD

>  <Index>  (319) 
38930

$$$$
ACEM-pdb5jfl-G-ASN-148:MIMD-pdb5jfl-G-HID-151
     RDKit          3D

 21 20  0  0  0  0  0  0  0  0999 V2000
   -3.9656    1.6994    3.4976 C   0  0  0  0  0  0  0  0  0  0  0  0
   -3.5235    1.4172    4.3453 H   0  0  0  0  0  0  0  0  0  0  0  0
   -4.8179    1.1967    3.3731 H   0  0  0  0  0  0  0  0  0  0  0  0
   -4.2063    2.7595    3.5771 H   0  0  0  0  0  0  0  0  0  0  0  0
   -3.0442    1.3930    2.3406 C   0  0  0  0  0  0  0  0  0  0  0  0
   -3.6247    1.0418    1.1990 N   0  0  0  0  0  0  0  0  0  0  0  0
   -4.6232    0.9982    1.1395 H   0  0  0  0  0  0  0  0  0  0  0  0
   -3.0674    0.8219    0.3984 H   0  0  0  0  0  0  0  0  0  0  0  0
   -1.8231    1.4615    2.4712 O   0  0  0  0  0  0  0  0  0  0  0  0
   -0.1747    2.6573   -0.0038 C   0  0  0  0  0  0  0  0  0  0  0  0
   -1.1119    2.8764    0.2887 H   0  0  0  0  0  0  0  0  0  0  0  0
   -0.0497    2.9860   -0.9461 H   0  0  0  0  0  0  0  0  0  0  0  0
    0.5306    3.1733    0.6476 H   0  0  0  0  0  0  0  0  0  0  0  0
   -0.0170    1.1680   -0.0013 C   0  0  0  0  0  0  0  0  0  0  0  0
    1.0908    0.3886   -0.0000 C   0  0  0  0  0  0  0  0  0  0  0  0
    2.0358    0.7034    0.0011 H   0  0  0  0  0  0  0  0  0  0  0  0
    0.6686   -0.9181    0.0007 N   0  0  0  0  0  0  0  0  0  0  0  0
   -0.6515   -0.9420    0.0006 C   0  0  0  0  0  0  0  0  0  0  0  0
   -1.2194   -1.7608    0.0019 H   0  0  0  0  0  0  0  0  0  0  0  0
   -1.0908    0.3034    0.0000 N   0  0  0  0  0  0  0  0  0  0  0  0
   -2.0524    0.5798   -0.0002 H   0  0  0  0  0  0  0  0  0  0  0  0
  1  5  1  0
  5  6  1  0
  5  9  2  0
  1  2  1  0
  1  3  1  0
  1  4  1  0
  6  7  1  0
  6  8  1  0
 10 14  1  0
 14 15  2  0
 15 17  1  0
 17 18  2  0
 18 20  1  0
 20 14  1  0
 10 11  1  0
 10 12  1  0
 10 13  1  0
 15 16  1  0
 18 19  1  0
 20 21  1  0
M  END
>  <PDB_ID>  (320) 
pdb5jfl

>  <RESIDUE_NAME>  (320) 
ASN   HID

>  <FRAG_NAME>  (320) 
ACEM   MIMD

>  <FRAG_ATOM_NUM>  (320) 
fragi: 9  fragj: 12

>  <atom.prop.CHAIN_ID>  (320) 
A A A A A A A A A Z Z Z Z Z Z Z Z Z Z Z Z

>  <atom.prop.IS_HEAVY_ATOM>  (320) 
1 0 0 0 1 1 0 0 1 1 0 0 0 1 1 0 1 1 0 1 0

>  <DIFUSE_FUNC_ATOM>  (320) 
n/a

>  <FINAL_SINGLE_POINT_ENERGY>  (320) 
0

>  <NONCOV_INTER_ENERGY_QM>  (320) 
0

>  <FF_Energy>  (320) 
11.05

>  <QM_Energy>  (320) 
21.18

>  <source>  (320) 
ACEM_MIMD

>  <Index>  (320) 
39246

$$$$
ACEM-pdb6ky8-A-ASN-4:MIMD-pdb6ky8-A-HID-131
     RDKit          3D

 21 20  0  0  0  0  0  0  0  0999 V2000
   -4.6010    3.6031   -0.9372 C   0  0  0  0  0  0  0  0  0  0  0  0
   -5.3439    3.7472   -1.5832 H   0  0  0  0  0  0  0  0  0  0  0  0
   -3.7640    4.0252   -1.2730 H   0  0  0  0  0  0  0  0  0  0  0  0
   -4.8698    4.0796    0.0055 H   0  0  0  0  0  0  0  0  0  0  0  0
   -4.3692    2.1138   -0.7868 C   0  0  0  0  0  0  0  0  0  0  0  0
   -3.4951    1.7402    0.1399 N   0  0  0  0  0  0  0  0  0  0  0  0
   -3.0337    2.4326    0.6981 H   0  0  0  0  0  0  0  0  0  0  0  0
   -3.2960    0.7716    0.2821 H   0  0  0  0  0  0  0  0  0  0  0  0
   -4.9671    1.3066   -1.4993 O   0  0  0  0  0  0  0  0  0  0  0  0
   -0.1768    2.6556    0.0009 C   0  0  0  0  0  0  0  0  0  0  0  0
   -1.0048    2.8871   -0.5224 H   0  0  0  0  0  0  0  0  0  0  0  0
    0.6180    3.0602   -0.4655 H   0  0  0  0  0  0  0  0  0  0  0  0
   -0.2575    3.0914    0.9967 H   0  0  0  0  0  0  0  0  0  0  0  0
   -0.0179    1.1672    0.0012 C   0  0  0  0  0  0  0  0  0  0  0  0
    1.0909    0.3897   -0.0000 C   0  0  0  0  0  0  0  0  0  0  0  0
    2.0357    0.7052   -0.0002 H   0  0  0  0  0  0  0  0  0  0  0  0
    0.6693   -0.9178   -0.0004 N   0  0  0  0  0  0  0  0  0  0  0  0
   -0.6514   -0.9425   -0.0008 C   0  0  0  0  0  0  0  0  0  0  0  0
   -1.2184   -1.7609   -0.0004 H   0  0  0  0  0  0  0  0  0  0  0  0
   -1.0909    0.3034    0.0000 N   0  0  0  0  0  0  0  0  0  0  0  0
   -2.0530    0.5787   -0.0013 H   0  0  0  0  0  0  0  0  0  0  0  0
  1  5  1  0
  5  6  1  0
  5  9  2  0
  1  2  1  0
  1  3  1  0
  1  4  1  0
  6  7  1  0
  6  8  1  0
 10 14  1  0
 14 15  2  0
 15 17  1  0
 17 18  2  0
 18 20  1  0
 20 14  1  0
 10 11  1  0
 10 12  1  0
 10 13  1  0
 15 16  1  0
 18 19  1  0
 20 21  1  0
M  END
>  <PDB_ID>  (321) 
pdb6ky8

>  <RESIDUE_NAME>  (321) 
ASN   HID

>  <FRAG_NAME>  (321) 
ACEM   MIMD

>  <FRAG_ATOM_NUM>  (321) 
fragi: 9  fragj: 12

>  <atom.prop.CHAIN_ID>  (321) 
A A A A A A A A A Z Z Z Z Z Z Z Z Z Z Z Z

>  <atom.prop.IS_HEAVY_ATOM>  (321) 
1 0 0 0 1 1 0 0 1 1 0 0 0 1 1 0 1 1 0 1 0

>  <DIFUSE_FUNC_ATOM>  (321) 
n/a

>  <FINAL_SINGLE_POINT_ENERGY>  (321) 
0

>  <NONCOV_INTER_ENERGY_QM>  (321) 
0

>  <FF_Energy>  (321) 
6.53

>  <QM_Energy>  (321) 
12.56

>  <source>  (321) 
ACEM_MIMD

>  <Index>  (321) 
39278

$$$$
ACEM-pdb6l6g-B-ASN-104:MIMD-pdb6l6g-B-HID-43
     RDKit          3D

 21 20  0  0  0  0  0  0  0  0999 V2000
   -4.5981   -4.4317   -0.4677 C   0  0  0  0  0  0  0  0  0  0  0  0
   -4.3747   -5.3203   -0.0770 H   0  0  0  0  0  0  0  0  0  0  0  0
   -5.3035   -4.5287   -1.1646 H   0  0  0  0  0  0  0  0  0  0  0  0
   -4.9862   -3.7950    0.3273 H   0  0  0  0  0  0  0  0  0  0  0  0
   -3.3489   -3.8610   -1.1195 C   0  0  0  0  0  0  0  0  0  0  0  0
   -2.7934   -2.8243   -0.5138 N   0  0  0  0  0  0  0  0  0  0  0  0
   -3.1927   -2.4603    0.3298 H   0  0  0  0  0  0  0  0  0  0  0  0
   -1.9705   -2.3987   -0.8961 H   0  0  0  0  0  0  0  0  0  0  0  0
   -2.8869   -4.3505   -2.1568 O   0  0  0  0  0  0  0  0  0  0  0  0
   -0.1794    2.6564    0.0058 C   0  0  0  0  0  0  0  0  0  0  0  0
   -0.3032    2.9685   -0.9448 H   0  0  0  0  0  0  0  0  0  0  0  0
    0.6718    3.0633    0.3620 H   0  0  0  0  0  0  0  0  0  0  0  0
   -1.0179    3.0071    0.6075 H   0  0  0  0  0  0  0  0  0  0  0  0
   -0.0166    1.1679   -0.0086 C   0  0  0  0  0  0  0  0  0  0  0  0
    1.0919    0.3892    0.0000 C   0  0  0  0  0  0  0  0  0  0  0  0
    2.0367    0.7035   -0.0004 H   0  0  0  0  0  0  0  0  0  0  0  0
    0.6689   -0.9187    0.0085 N   0  0  0  0  0  0  0  0  0  0  0  0
   -0.6522   -0.9424    0.0001 C   0  0  0  0  0  0  0  0  0  0  0  0
   -1.2191   -1.7604   -0.0042 H   0  0  0  0  0  0  0  0  0  0  0  0
   -1.0919    0.3039   -0.0000 N   0  0  0  0  0  0  0  0  0  0  0  0
   -2.0526    0.5802    0.0051 H   0  0  0  0  0  0  0  0  0  0  0  0
  1  5  1  0
  5  6  1  0
  5  9  2  0
  1  2  1  0
  1  3  1  0
  1  4  1  0
  6  7  1  0
  6  8  1  0
 10 14  1  0
 14 15  2  0
 15 17  1  0
 17 18  2  0
 18 20  1  0
 20 14  1  0
 10 11  1  0
 10 12  1  0
 10 13  1  0
 15 16  1  0
 18 19  1  0
 20 21  1  0
M  END
>  <PDB_ID>  (322) 
pdb6l6g

>  <RESIDUE_NAME>  (322) 
ASN   HID

>  <FRAG_NAME>  (322) 
ACEM   MIMD

>  <FRAG_ATOM_NUM>  (322) 
fragi: 9  fragj: 12

>  <atom.prop.CHAIN_ID>  (322) 
A A A A A A A A A Z Z Z Z Z Z Z Z Z Z Z Z

>  <atom.prop.IS_HEAVY_ATOM>  (322) 
1 0 0 0 1 1 0 0 1 1 0 0 0 1 1 0 1 1 0 1 0

>  <DIFUSE_FUNC_ATOM>  (322) 
n/a

>  <FINAL_SINGLE_POINT_ENERGY>  (322) 
0

>  <NONCOV_INTER_ENERGY_QM>  (322) 
0

>  <FF_Energy>  (322) 
7.21

>  <QM_Energy>  (322) 
12.53

>  <source>  (322) 
ACEM_MIMD

>  <Index>  (322) 
39317

$$$$
ACEM-pdb5jpf-A-ASN-260:MIMD-pdb5jpf-A-HID-290
     RDKit          3D

 21 20  0  0  0  0  0  0  0  0999 V2000
   -4.2424    0.9845    1.7493 C   0  0  0  0  0  0  0  0  0  0  0  0
   -3.2842    1.0776    2.0028 H   0  0  0  0  0  0  0  0  0  0  0  0
   -4.4518    0.0331    1.5418 H   0  0  0  0  0  0  0  0  0  0  0  0
   -4.8521    1.2904    2.5995 H   0  0  0  0  0  0  0  0  0  0  0  0
   -4.5037    1.8209    0.5175 C   0  0  0  0  0  0  0  0  0  0  0  0
   -3.4572    2.0730   -0.2603 N   0  0  0  0  0  0  0  0  0  0  0  0
   -2.5562    1.7083   -0.0180 H   0  0  0  0  0  0  0  0  0  0  0  0
   -3.5660    2.6256   -1.0861 H   0  0  0  0  0  0  0  0  0  0  0  0
   -5.6318    2.2406    0.2683 O   0  0  0  0  0  0  0  0  0  0  0  0
   -0.1749    2.6564    0.0042 C   0  0  0  0  0  0  0  0  0  0  0  0
    0.4171    3.0385    0.7213 H   0  0  0  0  0  0  0  0  0  0  0  0
   -1.1307    2.8733    0.2294 H   0  0  0  0  0  0  0  0  0  0  0  0
    0.0769    3.1221   -0.9486 H   0  0  0  0  0  0  0  0  0  0  0  0
   -0.0165    1.1669    0.0054 C   0  0  0  0  0  0  0  0  0  0  0  0
    1.0902    0.3889    0.0000 C   0  0  0  0  0  0  0  0  0  0  0  0
    2.0358    0.7033   -0.0010 H   0  0  0  0  0  0  0  0  0  0  0  0
    0.6681   -0.9181   -0.0028 N   0  0  0  0  0  0  0  0  0  0  0  0
   -0.6516   -0.9418   -0.0027 C   0  0  0  0  0  0  0  0  0  0  0  0
   -1.2191   -1.7604   -0.0031 H   0  0  0  0  0  0  0  0  0  0  0  0
   -1.0902    0.3041   -0.0000 N   0  0  0  0  0  0  0  0  0  0  0  0
   -2.0513    0.5805   -0.0025 H   0  0  0  0  0  0  0  0  0  0  0  0
  1  5  1  0
  5  6  1  0
  5  9  2  0
  1  2  1  0
  1  3  1  0
  1  4  1  0
  6  7  1  0
  6  8  1  0
 10 14  1  0
 14 15  2  0
 15 17  1  0
 17 18  2  0
 18 20  1  0
 20 14  1  0
 10 11  1  0
 10 12  1  0
 10 13  1  0
 15 16  1  0
 18 19  1  0
 20 21  1  0
M  END
>  <PDB_ID>  (323) 
pdb5jpf

>  <RESIDUE_NAME>  (323) 
ASN   HID

>  <FRAG_NAME>  (323) 
ACEM   MIMD

>  <FRAG_ATOM_NUM>  (323) 
fragi: 9  fragj: 12

>  <atom.prop.CHAIN_ID>  (323) 
A A A A A A A A A Z Z Z Z Z Z Z Z Z Z Z Z

>  <atom.prop.IS_HEAVY_ATOM>  (323) 
1 0 0 0 1 1 0 0 1 1 0 0 0 1 1 0 1 1 0 1 0

>  <DIFUSE_FUNC_ATOM>  (323) 
n/a

>  <FINAL_SINGLE_POINT_ENERGY>  (323) 
0

>  <NONCOV_INTER_ENERGY_QM>  (323) 
0

>  <FF_Energy>  (323) 
6.63

>  <QM_Energy>  (323) 
14.01

>  <source>  (323) 
ACEM_MIMD

>  <Index>  (323) 
39445

$$$$
ACEM-pdb5k1a-B-GLN-570:MIMD-pdb5k1a-B-HID-671
     RDKit          3D

 21 20  0  0  0  0  0  0  0  0999 V2000
   -1.9049   -0.9017   -3.4055 C   0  0  0  0  0  0  0  0  0  0  0  0
   -0.9810   -0.5748   -3.5775 H   0  0  0  0  0  0  0  0  0  0  0  0
   -2.2755   -0.4730   -2.5879 H   0  0  0  0  0  0  0  0  0  0  0  0
   -2.5371   -0.6557   -4.2586 H   0  0  0  0  0  0  0  0  0  0  0  0
   -1.8558   -2.3927   -3.1889 C   0  0  0  0  0  0  0  0  0  0  0  0
   -1.4576   -2.8100   -1.9988 N   0  0  0  0  0  0  0  0  0  0  0  0
   -1.4114   -3.8026   -1.7730 H   0  0  0  0  0  0  0  0  0  0  0  0
   -1.1905   -2.1172   -1.2966 H   0  0  0  0  0  0  0  0  0  0  0  0
   -2.1867   -3.1639   -4.0868 O   0  0  0  0  0  0  0  0  0  0  0  0
   -0.1832    2.6515   -0.0187 C   0  0  0  0  0  0  0  0  0  0  0  0
    0.4772    3.0417    0.6316 H   0  0  0  0  0  0  0  0  0  0  0  0
   -1.1122    2.8671    0.3008 H   0  0  0  0  0  0  0  0  0  0  0  0
   -0.0305    3.1075   -0.9970 H   0  0  0  0  0  0  0  0  0  0  0  0
   -0.0199    1.1662   -0.0215 C   0  0  0  0  0  0  0  0  0  0  0  0
    1.0890    0.3929    0.0000 C   0  0  0  0  0  0  0  0  0  0  0  0
    2.0336    0.7088    0.0059 H   0  0  0  0  0  0  0  0  0  0  0  0
    0.6687   -0.9146    0.0143 N   0  0  0  0  0  0  0  0  0  0  0  0
   -0.6487   -0.9444    0.0072 C   0  0  0  0  0  0  0  0  0  0  0  0
   -1.2147   -1.7636    0.0095 H   0  0  0  0  0  0  0  0  0  0  0  0
   -1.0890    0.2998    0.0000 N   0  0  0  0  0  0  0  0  0  0  0  0
   -2.0524    0.5740    0.0085 H   0  0  0  0  0  0  0  0  0  0  0  0
  1  5  1  0
  5  6  1  0
  5  9  2  0
  1  2  1  0
  1  3  1  0
  1  4  1  0
  6  7  1  0
  6  8  1  0
 10 14  1  0
 14 15  2  0
 15 17  1  0
 17 18  2  0
 18 20  1  0
 20 14  1  0
 10 11  1  0
 10 12  1  0
 10 13  1  0
 15 16  1  0
 18 19  1  0
 20 21  1  0
M  END
>  <PDB_ID>  (324) 
pdb5k1a

>  <RESIDUE_NAME>  (324) 
GLN   HID

>  <FRAG_NAME>  (324) 
ACEM   MIMD

>  <FRAG_ATOM_NUM>  (324) 
fragi: 9  fragj: 12

>  <atom.prop.CHAIN_ID>  (324) 
A A A A A A A A A Z Z Z Z Z Z Z Z Z Z Z Z

>  <atom.prop.IS_HEAVY_ATOM>  (324) 
1 0 0 0 1 1 0 0 1 1 0 0 0 1 1 0 1 1 0 1 0

>  <DIFUSE_FUNC_ATOM>  (324) 
n/a

>  <FINAL_SINGLE_POINT_ENERGY>  (324) 
0

>  <NONCOV_INTER_ENERGY_QM>  (324) 
0

>  <FF_Energy>  (324) 
1.09

>  <QM_Energy>  (324) 
9.19

>  <source>  (324) 
ACEM_MIMD

>  <Index>  (324) 
39656

$$$$
ACEM-pdb6nbk-A-ASN-114:MIMD-pdb6nbk-A-HID-215
     RDKit          3D

 21 20  0  0  0  0  0  0  0  0999 V2000
   -5.7379   -0.4174    2.3392 C   0  0  0  0  0  0  0  0  0  0  0  0
   -6.5768   -0.1457    1.8721 H   0  0  0  0  0  0  0  0  0  0  0  0
   -5.4157    0.3273    2.9194 H   0  0  0  0  0  0  0  0  0  0  0  0
   -5.9652   -1.2709    2.9779 H   0  0  0  0  0  0  0  0  0  0  0  0
   -4.6874   -0.7300    1.3147 C   0  0  0  0  0  0  0  0  0  0  0  0
   -3.7917    0.2217    1.0915 N   0  0  0  0  0  0  0  0  0  0  0  0
   -3.8325    1.0841    1.5939 H   0  0  0  0  0  0  0  0  0  0  0  0
   -3.0655    0.0774    0.4147 H   0  0  0  0  0  0  0  0  0  0  0  0
   -4.6684   -1.8204    0.7276 O   0  0  0  0  0  0  0  0  0  0  0  0
   -0.1768    2.6561   -0.0208 C   0  0  0  0  0  0  0  0  0  0  0  0
   -1.0900    2.8769   -0.3717 H   0  0  0  0  0  0  0  0  0  0  0  0
    0.5128    3.0490   -0.6335 H   0  0  0  0  0  0  0  0  0  0  0  0
   -0.0599    3.0891    0.9727 H   0  0  0  0  0  0  0  0  0  0  0  0
   -0.0181    1.1674   -0.0277 C   0  0  0  0  0  0  0  0  0  0  0  0
    1.0925    0.3892   -0.0000 C   0  0  0  0  0  0  0  0  0  0  0  0
    2.0361    0.7053    0.0083 H   0  0  0  0  0  0  0  0  0  0  0  0
    0.6700   -0.9181    0.0149 N   0  0  0  0  0  0  0  0  0  0  0  0
   -0.6519   -0.9421    0.0128 C   0  0  0  0  0  0  0  0  0  0  0  0
   -1.2183   -1.7613    0.0215 H   0  0  0  0  0  0  0  0  0  0  0  0
   -1.0925    0.3037    0.0000 N   0  0  0  0  0  0  0  0  0  0  0  0
   -2.0531    0.5803    0.0084 H   0  0  0  0  0  0  0  0  0  0  0  0
  1  5  1  0
  5  6  1  0
  5  9  2  0
  1  2  1  0
  1  3  1  0
  1  4  1  0
  6  7  1  0
  6  8  1  0
 10 14  1  0
 14 15  2  0
 15 17  1  0
 17 18  2  0
 18 20  1  0
 20 14  1  0
 10 11  1  0
 10 12  1  0
 10 13  1  0
 15 16  1  0
 18 19  1  0
 20 21  1  0
M  END
>  <PDB_ID>  (325) 
pdb6nbk

>  <RESIDUE_NAME>  (325) 
ASN   HID

>  <FRAG_NAME>  (325) 
ACEM   MIMD

>  <FRAG_ATOM_NUM>  (325) 
fragi: 9  fragj: 12

>  <atom.prop.CHAIN_ID>  (325) 
A A A A A A A A A Z Z Z Z Z Z Z Z Z Z Z Z

>  <atom.prop.IS_HEAVY_ATOM>  (325) 
1 0 0 0 1 1 0 0 1 1 0 0 0 1 1 0 1 1 0 1 0

>  <DIFUSE_FUNC_ATOM>  (325) 
n/a

>  <FINAL_SINGLE_POINT_ENERGY>  (325) 
0

>  <NONCOV_INTER_ENERGY_QM>  (325) 
0

>  <FF_Energy>  (325) 
6.88

>  <QM_Energy>  (325) 
15.51

>  <source>  (325) 
ACEM_MIMD

>  <Index>  (325) 
39972

$$$$
ACEM-pdb6nbk-A-ASN-167:MIMD-pdb6nbk-A-HID-215
     RDKit          3D

 21 20  0  0  0  0  0  0  0  0999 V2000
   -1.0731   -5.3027    2.2174 C   0  0  0  0  0  0  0  0  0  0  0  0
   -1.6558   -6.1057    2.3162 H   0  0  0  0  0  0  0  0  0  0  0  0
   -0.9264   -4.8759    3.1057 H   0  0  0  0  0  0  0  0  0  0  0  0
   -0.1077   -5.6236    1.8260 H   0  0  0  0  0  0  0  0  0  0  0  0
   -1.7677   -4.3089    1.3108 C   0  0  0  0  0  0  0  0  0  0  0  0
   -1.0535   -3.8205    0.3081 N   0  0  0  0  0  0  0  0  0  0  0  0
   -0.1045   -4.1176    0.1788 H   0  0  0  0  0  0  0  0  0  0  0  0
   -1.4555   -3.1555   -0.3212 H   0  0  0  0  0  0  0  0  0  0  0  0
   -2.9402   -4.0105    1.4969 O   0  0  0  0  0  0  0  0  0  0  0  0
   -0.1768    2.6561   -0.0208 C   0  0  0  0  0  0  0  0  0  0  0  0
   -1.0900    2.8769   -0.3717 H   0  0  0  0  0  0  0  0  0  0  0  0
    0.5128    3.0490   -0.6335 H   0  0  0  0  0  0  0  0  0  0  0  0
   -0.0599    3.0891    0.9727 H   0  0  0  0  0  0  0  0  0  0  0  0
   -0.0181    1.1674   -0.0277 C   0  0  0  0  0  0  0  0  0  0  0  0
    1.0925    0.3892   -0.0000 C   0  0  0  0  0  0  0  0  0  0  0  0
    2.0361    0.7053    0.0083 H   0  0  0  0  0  0  0  0  0  0  0  0
    0.6700   -0.9181    0.0149 N   0  0  0  0  0  0  0  0  0  0  0  0
   -0.6519   -0.9421    0.0128 C   0  0  0  0  0  0  0  0  0  0  0  0
   -1.2183   -1.7613    0.0215 H   0  0  0  0  0  0  0  0  0  0  0  0
   -1.0925    0.3037    0.0000 N   0  0  0  0  0  0  0  0  0  0  0  0
   -2.0531    0.5803    0.0084 H   0  0  0  0  0  0  0  0  0  0  0  0
  1  5  1  0
  5  6  1  0
  5  9  2  0
  1  2  1  0
  1  3  1  0
  1  4  1  0
  6  7  1  0
  6  8  1  0
 10 14  1  0
 14 15  2  0
 15 17  1  0
 17 18  2  0
 18 20  1  0
 20 14  1  0
 10 11  1  0
 10 12  1  0
 10 13  1  0
 15 16  1  0
 18 19  1  0
 20 21  1  0
M  END
>  <PDB_ID>  (326) 
pdb6nbk

>  <RESIDUE_NAME>  (326) 
ASN   HID

>  <FRAG_NAME>  (326) 
ACEM   MIMD

>  <FRAG_ATOM_NUM>  (326) 
fragi: 9  fragj: 12

>  <atom.prop.CHAIN_ID>  (326) 
A A A A A A A A A Z Z Z Z Z Z Z Z Z Z Z Z

>  <atom.prop.IS_HEAVY_ATOM>  (326) 
1 0 0 0 1 1 0 0 1 1 0 0 0 1 1 0 1 1 0 1 0

>  <DIFUSE_FUNC_ATOM>  (326) 
n/a

>  <FINAL_SINGLE_POINT_ENERGY>  (326) 
0

>  <NONCOV_INTER_ENERGY_QM>  (326) 
0

>  <FF_Energy>  (326) 
-0.24

>  <QM_Energy>  (326) 
5.0

>  <source>  (326) 
ACEM_MIMD

>  <Index>  (326) 
40042

$$$$
ACEM-pdb6npo-A-ASN-91:MIMD-pdb6npo-A-HID-546
     RDKit          3D

 21 20  0  0  0  0  0  0  0  0999 V2000
   -5.4887    1.4560   -0.1187 C   0  0  0  0  0  0  0  0  0  0  0  0
   -6.4164    1.5726   -0.4572 H   0  0  0  0  0  0  0  0  0  0  0  0
   -5.3402    2.0157    0.6892 H   0  0  0  0  0  0  0  0  0  0  0  0
   -5.3492    0.4104    0.1555 H   0  0  0  0  0  0  0  0  0  0  0  0
   -4.5205    1.8906   -1.1958 C   0  0  0  0  0  0  0  0  0  0  0  0
   -3.2848    1.4358   -1.1016 N   0  0  0  0  0  0  0  0  0  0  0  0
   -3.0304    0.8275   -0.3450 H   0  0  0  0  0  0  0  0  0  0  0  0
   -2.5973    1.6933   -1.7813 H   0  0  0  0  0  0  0  0  0  0  0  0
   -4.8960    2.6200   -2.1021 O   0  0  0  0  0  0  0  0  0  0  0  0
   -0.1518    2.6540   -0.0162 C   0  0  0  0  0  0  0  0  0  0  0  0
    0.7478    3.0589    0.2189 H   0  0  0  0  0  0  0  0  0  0  0  0
   -0.7971    2.9030    0.7250 H   0  0  0  0  0  0  0  0  0  0  0  0
   -0.5031    3.0925   -0.9503 H   0  0  0  0  0  0  0  0  0  0  0  0
   -0.0053    1.1686   -0.0249 C   0  0  0  0  0  0  0  0  0  0  0  0
    1.0909    0.3840    0.0000 C   0  0  0  0  0  0  0  0  0  0  0  0
    2.0426    0.6943    0.0093 H   0  0  0  0  0  0  0  0  0  0  0  0
    0.6715   -0.9250    0.0124 N   0  0  0  0  0  0  0  0  0  0  0  0
   -0.6662   -0.9394    0.0125 C   0  0  0  0  0  0  0  0  0  0  0  0
   -1.2313   -1.7536    0.0219 H   0  0  0  0  0  0  0  0  0  0  0  0
   -1.0909    0.3118   -0.0000 N   0  0  0  0  0  0  0  0  0  0  0  0
   -2.0485    0.6007    0.0071 H   0  0  0  0  0  0  0  0  0  0  0  0
  1  5  1  0
  5  6  1  0
  5  9  2  0
  1  2  1  0
  1  3  1  0
  1  4  1  0
  6  7  1  0
  6  8  1  0
 10 14  1  0
 14 15  2  0
 15 17  1  0
 17 18  2  0
 18 20  1  0
 20 14  1  0
 10 11  1  0
 10 12  1  0
 10 13  1  0
 15 16  1  0
 18 19  1  0
 20 21  1  0
M  END
>  <PDB_ID>  (327) 
pdb6npo

>  <RESIDUE_NAME>  (327) 
ASN   HID

>  <FRAG_NAME>  (327) 
ACEM   MIMD

>  <FRAG_ATOM_NUM>  (327) 
fragi: 9  fragj: 12

>  <atom.prop.CHAIN_ID>  (327) 
A A A A A A A A A Z Z Z Z Z Z Z Z Z Z Z Z

>  <atom.prop.IS_HEAVY_ATOM>  (327) 
1 0 0 0 1 1 0 0 1 1 0 0 0 1 1 0 1 1 0 1 0

>  <DIFUSE_FUNC_ATOM>  (327) 
n/a

>  <FINAL_SINGLE_POINT_ENERGY>  (327) 
0

>  <NONCOV_INTER_ENERGY_QM>  (327) 
0

>  <FF_Energy>  (327) 
13.95

>  <QM_Energy>  (327) 
24.58

>  <source>  (327) 
ACEM_MIMD

>  <Index>  (327) 
40212

$$$$
ACEM-pdb6o15-B-ASN-70:MIMD-pdb6o15-B-HID-173
     RDKit          3D

 21 20  0  0  0  0  0  0  0  0999 V2000
   -5.6587    1.3893   -2.3841 C   0  0  0  0  0  0  0  0  0  0  0  0
   -5.2138    1.6371   -3.2096 H   0  0  0  0  0  0  0  0  0  0  0  0
   -6.0096    2.1812   -1.9464 H   0  0  0  0  0  0  0  0  0  0  0  0
   -6.4846    0.7164   -2.6145 H   0  0  0  0  0  0  0  0  0  0  0  0
   -4.6292    0.7676   -1.4678 C   0  0  0  0  0  0  0  0  0  0  0  0
   -3.5411    1.4682   -1.2404 N   0  0  0  0  0  0  0  0  0  0  0  0
   -2.9277    1.1554   -0.7258 H   0  0  0  0  0  0  0  0  0  0  0  0
   -3.4420    2.2397   -1.6069 H   0  0  0  0  0  0  0  0  0  0  0  0
   -4.8225   -0.3231   -0.9448 O   0  0  0  0  0  0  0  0  0  0  0  0
   -0.1764    2.6412   -0.0282 C   0  0  0  0  0  0  0  0  0  0  0  0
   -0.5134    2.8943   -0.9013 H   0  0  0  0  0  0  0  0  0  0  0  0
    0.6956    3.0402    0.1178 H   0  0  0  0  0  0  0  0  0  0  0  0
   -0.8640    3.0035    0.7360 H   0  0  0  0  0  0  0  0  0  0  0  0
   -0.0127    1.1638   -0.0105 C   0  0  0  0  0  0  0  0  0  0  0  0
    1.0934    0.3873    0.0000 C   0  0  0  0  0  0  0  0  0  0  0  0
    1.9750    0.6803   -0.0027 H   0  0  0  0  0  0  0  0  0  0  0  0
    0.6657   -0.9194    0.0085 N   0  0  0  0  0  0  0  0  0  0  0  0
   -0.6530   -0.9397    0.0020 C   0  0  0  0  0  0  0  0  0  0  0  0
   -1.1841   -1.7033    0.0120 H   0  0  0  0  0  0  0  0  0  0  0  0
   -1.0934    0.3079   -0.0000 N   0  0  0  0  0  0  0  0  0  0  0  0
   -2.0511    0.5857    0.0047 H   0  0  0  0  0  0  0  0  0  0  0  0
  1  5  1  0
  5  6  1  0
  5  9  2  0
  1  2  1  0
  1  3  1  0
  1  4  1  0
  6  7  1  0
  6  8  1  0
 10 14  1  0
 14 15  2  0
 15 17  1  0
 17 18  2  0
 18 20  1  0
 20 14  1  0
 10 11  1  0
 10 12  1  0
 10 13  1  0
 15 16  1  0
 18 19  1  0
 20 21  1  0
M  END
>  <PDB_ID>  (328) 
pdb6o15

>  <RESIDUE_NAME>  (328) 
ASN   HID

>  <FRAG_NAME>  (328) 
ACEM   MIMD

>  <FRAG_ATOM_NUM>  (328) 
fragi: 9  fragj: 12

>  <atom.prop.CHAIN_ID>  (328) 
A A A A A A A A A Z Z Z Z Z Z Z Z Z Z Z Z

>  <atom.prop.IS_HEAVY_ATOM>  (328) 
1 0 0 0 1 1 0 0 1 1 0 0 0 1 1 0 1 1 0 1 0

>  <DIFUSE_FUNC_ATOM>  (328) 
n/a

>  <FINAL_SINGLE_POINT_ENERGY>  (328) 
0

>  <NONCOV_INTER_ENERGY_QM>  (328) 
0

>  <FF_Energy>  (328) 
4.54

>  <QM_Energy>  (328) 
10.51

>  <source>  (328) 
ACEM_MIMD

>  <Index>  (328) 
40369

$$$$
ACEM-pdb5ltp-C-ASN-101:MIMD-pdb5ltp-C-HID-87
     RDKit          3D

 21 20  0  0  0  0  0  0  0  0999 V2000
   -5.6411    2.6079    0.3979 C   0  0  0  0  0  0  0  0  0  0  0  0
   -6.5736    2.2757    0.5078 H   0  0  0  0  0  0  0  0  0  0  0  0
   -5.6102    3.3213   -0.2966 H   0  0  0  0  0  0  0  0  0  0  0  0
   -5.3109    3.0328    1.3458 H   0  0  0  0  0  0  0  0  0  0  0  0
   -4.7682    1.4624   -0.0451 C   0  0  0  0  0  0  0  0  0  0  0  0
   -3.5450    1.7761   -0.3378 N   0  0  0  0  0  0  0  0  0  0  0  0
   -3.2016    2.7159   -0.2677 H   0  0  0  0  0  0  0  0  0  0  0  0
   -2.8946    1.0585   -0.6505 H   0  0  0  0  0  0  0  0  0  0  0  0
   -5.1985    0.3083   -0.1263 O   0  0  0  0  0  0  0  0  0  0  0  0
   -0.1655    2.6619   -0.0205 C   0  0  0  0  0  0  0  0  0  0  0  0
   -0.8473    2.8939   -0.7297 H   0  0  0  0  0  0  0  0  0  0  0  0
    0.7202    3.0585   -0.3023 H   0  0  0  0  0  0  0  0  0  0  0  0
   -0.4699    3.1131    0.9239 H   0  0  0  0  0  0  0  0  0  0  0  0
   -0.0173    1.1695    0.0131 C   0  0  0  0  0  0  0  0  0  0  0  0
    1.0900    0.3921    0.0000 C   0  0  0  0  0  0  0  0  0  0  0  0
    2.0356    0.7062   -0.0021 H   0  0  0  0  0  0  0  0  0  0  0  0
    0.6685   -0.9169   -0.0090 N   0  0  0  0  0  0  0  0  0  0  0  0
   -0.6513   -0.9439   -0.0041 C   0  0  0  0  0  0  0  0  0  0  0  0
   -1.2162   -1.7636   -0.0024 H   0  0  0  0  0  0  0  0  0  0  0  0
   -1.0900    0.2993    0.0000 N   0  0  0  0  0  0  0  0  0  0  0  0
   -2.0528    0.5765   -0.0066 H   0  0  0  0  0  0  0  0  0  0  0  0
  1  5  1  0
  5  6  1  0
  5  9  2  0
  1  2  1  0
  1  3  1  0
  1  4  1  0
  6  7  1  0
  6  8  1  0
 10 14  1  0
 14 15  2  0
 15 17  1  0
 17 18  2  0
 18 20  1  0
 20 14  1  0
 10 11  1  0
 10 12  1  0
 10 13  1  0
 15 16  1  0
 18 19  1  0
 20 21  1  0
M  END
>  <PDB_ID>  (329) 
pdb5ltp

>  <RESIDUE_NAME>  (329) 
ASN   HID

>  <FRAG_NAME>  (329) 
ACEM   MIMD

>  <FRAG_ATOM_NUM>  (329) 
fragi: 9  fragj: 12

>  <atom.prop.CHAIN_ID>  (329) 
A A A A A A A A A Z Z Z Z Z Z Z Z Z Z Z Z

>  <atom.prop.IS_HEAVY_ATOM>  (329) 
1 0 0 0 1 1 0 0 1 1 0 0 0 1 1 0 1 1 0 1 0

>  <DIFUSE_FUNC_ATOM>  (329) 
n/a

>  <FINAL_SINGLE_POINT_ENERGY>  (329) 
0

>  <NONCOV_INTER_ENERGY_QM>  (329) 
0

>  <FF_Energy>  (329) 
6.34

>  <QM_Energy>  (329) 
15.27

>  <source>  (329) 
ACEM_MIMD

>  <Index>  (329) 
40794

$$$$
ACEM-pdb6q63-A-GLN-477:MIMD-pdb6q63-A-HID-194
     RDKit          3D

 21 20  0  0  0  0  0  0  0  0999 V2000
   -5.0982    3.3387   -1.5243 C   0  0  0  0  0  0  0  0  0  0  0  0
   -5.3970    2.5847   -2.1052 H   0  0  0  0  0  0  0  0  0  0  0  0
   -4.7514    4.0847   -2.0875 H   0  0  0  0  0  0  0  0  0  0  0  0
   -5.9557    3.7015   -0.9575 H   0  0  0  0  0  0  0  0  0  0  0  0
   -3.9928    2.8516   -0.6221 C   0  0  0  0  0  0  0  0  0  0  0  0
   -3.4439    1.6954   -0.9555 N   0  0  0  0  0  0  0  0  0  0  0  0
   -2.6754    1.3001   -0.4014 H   0  0  0  0  0  0  0  0  0  0  0  0
   -3.7914    1.1961   -1.7707 H   0  0  0  0  0  0  0  0  0  0  0  0
   -3.6334    3.5001    0.3599 O   0  0  0  0  0  0  0  0  0  0  0  0
   -0.1839    2.6466   -0.0287 C   0  0  0  0  0  0  0  0  0  0  0  0
   -0.7994    2.9042    0.7302 H   0  0  0  0  0  0  0  0  0  0  0  0
   -0.6355    2.9065   -0.8941 H   0  0  0  0  0  0  0  0  0  0  0  0
    0.7418    3.2144    0.0653 H   0  0  0  0  0  0  0  0  0  0  0  0
   -0.0113    1.1641   -0.0146 C   0  0  0  0  0  0  0  0  0  0  0  0
    1.0907    0.3815   -0.0000 C   0  0  0  0  0  0  0  0  0  0  0  0
    2.0399    0.6988    0.0040 H   0  0  0  0  0  0  0  0  0  0  0  0
    0.6736   -0.9186    0.0089 N   0  0  0  0  0  0  0  0  0  0  0  0
   -0.6623   -0.9356    0.0057 C   0  0  0  0  0  0  0  0  0  0  0  0
   -1.2247   -1.7544    0.0082 H   0  0  0  0  0  0  0  0  0  0  0  0
   -1.0907    0.3085    0.0000 N   0  0  0  0  0  0  0  0  0  0  0  0
   -2.0505    0.5938    0.0045 H   0  0  0  0  0  0  0  0  0  0  0  0
  1  5  1  0
  5  6  1  0
  5  9  2  0
  1  2  1  0
  1  3  1  0
  1  4  1  0
  6  7  1  0
  6  8  1  0
 10 14  1  0
 14 15  2  0
 15 17  1  0
 17 18  2  0
 18 20  1  0
 20 14  1  0
 10 11  1  0
 10 12  1  0
 10 13  1  0
 15 16  1  0
 18 19  1  0
 20 21  1  0
M  END
>  <PDB_ID>  (330) 
pdb6q63

>  <RESIDUE_NAME>  (330) 
GLN   HID

>  <FRAG_NAME>  (330) 
ACEM   MIMD

>  <FRAG_ATOM_NUM>  (330) 
fragi: 9  fragj: 12

>  <atom.prop.CHAIN_ID>  (330) 
A A A A A A A A A Z Z Z Z Z Z Z Z Z Z Z Z

>  <atom.prop.IS_HEAVY_ATOM>  (330) 
1 0 0 0 1 1 0 0 1 1 0 0 0 1 1 0 1 1 0 1 0

>  <DIFUSE_FUNC_ATOM>  (330) 
n/a

>  <FINAL_SINGLE_POINT_ENERGY>  (330) 
0

>  <NONCOV_INTER_ENERGY_QM>  (330) 
0

>  <FF_Energy>  (330) 
8.61

>  <QM_Energy>  (330) 
23.25

>  <source>  (330) 
ACEM_MIMD

>  <Index>  (330) 
41065

$$$$
ACEM-pdb5mal-A-ASN-231:MIMD-pdb5mal-A-HID-42
     RDKit          3D

 21 20  0  0  0  0  0  0  0  0999 V2000
   -1.1661   -6.3481   -0.6789 C   0  0  0  0  0  0  0  0  0  0  0  0
   -1.9156   -6.9990   -0.5935 H   0  0  0  0  0  0  0  0  0  0  0  0
   -0.3690   -6.6758   -0.1793 H   0  0  0  0  0  0  0  0  0  0  0  0
   -0.9006   -6.2686   -1.7331 H   0  0  0  0  0  0  0  0  0  0  0  0
   -1.5983   -5.0279   -0.0957 C   0  0  0  0  0  0  0  0  0  0  0  0
   -1.1018   -3.9384   -0.6585 N   0  0  0  0  0  0  0  0  0  0  0  0
   -0.4755   -4.0183   -1.4376 H   0  0  0  0  0  0  0  0  0  0  0  0
   -1.3478   -3.0336   -0.3113 H   0  0  0  0  0  0  0  0  0  0  0  0
   -2.3875   -4.9871    0.8566 O   0  0  0  0  0  0  0  0  0  0  0  0
   -0.1790    2.6512   -0.0422 C   0  0  0  0  0  0  0  0  0  0  0  0
   -0.9650    2.8768   -0.6267 H   0  0  0  0  0  0  0  0  0  0  0  0
    0.6480    3.0548   -0.4461 H   0  0  0  0  0  0  0  0  0  0  0  0
   -0.3363    3.0772    0.9487 H   0  0  0  0  0  0  0  0  0  0  0  0
   -0.0164    1.1647   -0.0259 C   0  0  0  0  0  0  0  0  0  0  0  0
    1.0907    0.3905    0.0000 C   0  0  0  0  0  0  0  0  0  0  0  0
    2.0356    0.7051    0.0140 H   0  0  0  0  0  0  0  0  0  0  0  0
    0.6680   -0.9165    0.0054 N   0  0  0  0  0  0  0  0  0  0  0  0
   -0.6516   -0.9419    0.0205 C   0  0  0  0  0  0  0  0  0  0  0  0
   -1.2185   -1.7601    0.0448 H   0  0  0  0  0  0  0  0  0  0  0  0
   -1.0907    0.3032   -0.0000 N   0  0  0  0  0  0  0  0  0  0  0  0
   -2.0519    0.5799    0.0020 H   0  0  0  0  0  0  0  0  0  0  0  0
  1  5  1  0
  5  6  1  0
  5  9  2  0
  1  2  1  0
  1  3  1  0
  1  4  1  0
  6  7  1  0
  6  8  1  0
 10 14  1  0
 14 15  2  0
 15 17  1  0
 17 18  2  0
 18 20  1  0
 20 14  1  0
 10 11  1  0
 10 12  1  0
 10 13  1  0
 15 16  1  0
 18 19  1  0
 20 21  1  0
M  END
>  <PDB_ID>  (331) 
pdb5mal

>  <RESIDUE_NAME>  (331) 
ASN   HID

>  <FRAG_NAME>  (331) 
ACEM   MIMD

>  <FRAG_ATOM_NUM>  (331) 
fragi: 9  fragj: 12

>  <atom.prop.CHAIN_ID>  (331) 
A A A A A A A A A Z Z Z Z Z Z Z Z Z Z Z Z

>  <atom.prop.IS_HEAVY_ATOM>  (331) 
1 0 0 0 1 1 0 0 1 1 0 0 0 1 1 0 1 1 0 1 0

>  <DIFUSE_FUNC_ATOM>  (331) 
n/a

>  <FINAL_SINGLE_POINT_ENERGY>  (331) 
0

>  <NONCOV_INTER_ENERGY_QM>  (331) 
0

>  <FF_Energy>  (331) 
0.39

>  <QM_Energy>  (331) 
6.82

>  <source>  (331) 
ACEM_MIMD

>  <Index>  (331) 
41084

$$$$
ACEM-pdb6q8a-A-ASN-454:MIMD-pdb6q8a-A-HID-448
     RDKit          3D

 21 20  0  0  0  0  0  0  0  0999 V2000
   -4.6719   -0.4287   -1.8445 C   0  0  0  0  0  0  0  0  0  0  0  0
   -5.4063   -0.8983   -2.3336 H   0  0  0  0  0  0  0  0  0  0  0  0
   -3.8110   -0.9164   -1.9840 H   0  0  0  0  0  0  0  0  0  0  0  0
   -4.5685    0.5728   -2.2621 H   0  0  0  0  0  0  0  0  0  0  0  0
   -4.9941   -0.4214   -0.3749 C   0  0  0  0  0  0  0  0  0  0  0  0
   -4.0230   -0.0428    0.4467 N   0  0  0  0  0  0  0  0  0  0  0  0
   -3.1318    0.2253    0.0744 H   0  0  0  0  0  0  0  0  0  0  0  0
   -4.1774   -0.0235    1.4330 H   0  0  0  0  0  0  0  0  0  0  0  0
   -6.1093   -0.7573    0.0227 O   0  0  0  0  0  0  0  0  0  0  0  0
   -0.1756    2.6564   -0.0299 C   0  0  0  0  0  0  0  0  0  0  0  0
    0.7178    3.0728    0.1750 H   0  0  0  0  0  0  0  0  0  0  0  0
   -0.8199    2.9146    0.7001 H   0  0  0  0  0  0  0  0  0  0  0  0
   -0.5404    3.0535   -0.9772 H   0  0  0  0  0  0  0  0  0  0  0  0
   -0.0172    1.1682   -0.0134 C   0  0  0  0  0  0  0  0  0  0  0  0
    1.0916    0.3899   -0.0000 C   0  0  0  0  0  0  0  0  0  0  0  0
    2.0367    0.7039    0.0044 H   0  0  0  0  0  0  0  0  0  0  0  0
    0.6686   -0.9183    0.0076 N   0  0  0  0  0  0  0  0  0  0  0  0
   -0.6513   -0.9426    0.0058 C   0  0  0  0  0  0  0  0  0  0  0  0
   -1.2187   -1.7616    0.0102 H   0  0  0  0  0  0  0  0  0  0  0  0
   -1.0916    0.3029    0.0000 N   0  0  0  0  0  0  0  0  0  0  0  0
   -2.0525    0.5787    0.0043 H   0  0  0  0  0  0  0  0  0  0  0  0
  1  5  1  0
  5  6  1  0
  5  9  2  0
  1  2  1  0
  1  3  1  0
  1  4  1  0
  6  7  1  0
  6  8  1  0
 10 14  1  0
 14 15  2  0
 15 17  1  0
 17 18  2  0
 18 20  1  0
 20 14  1  0
 10 11  1  0
 10 12  1  0
 10 13  1  0
 15 16  1  0
 18 19  1  0
 20 21  1  0
M  END
>  <PDB_ID>  (332) 
pdb6q8a

>  <RESIDUE_NAME>  (332) 
ASN   HID

>  <FRAG_NAME>  (332) 
ACEM   MIMD

>  <FRAG_ATOM_NUM>  (332) 
fragi: 9  fragj: 12

>  <atom.prop.CHAIN_ID>  (332) 
A A A A A A A A A Z Z Z Z Z Z Z Z Z Z Z Z

>  <atom.prop.IS_HEAVY_ATOM>  (332) 
1 0 0 0 1 1 0 0 1 1 0 0 0 1 1 0 1 1 0 1 0

>  <DIFUSE_FUNC_ATOM>  (332) 
n/a

>  <FINAL_SINGLE_POINT_ENERGY>  (332) 
0

>  <NONCOV_INTER_ENERGY_QM>  (332) 
0

>  <FF_Energy>  (332) 
8.78

>  <QM_Energy>  (332) 
16.9

>  <source>  (332) 
ACEM_MIMD

>  <Index>  (332) 
41102

$$$$
ACEM-pdb6r1g-B-ASN-138:MIMD-pdb6r1g-B-HID-58
     RDKit          3D

 21 20  0  0  0  0  0  0  0  0999 V2000
   -3.9816    0.1342    2.4655 C   0  0  0  0  0  0  0  0  0  0  0  0
   -3.6753    0.2116    3.4148 H   0  0  0  0  0  0  0  0  0  0  0  0
   -3.2620   -0.2956    1.9186 H   0  0  0  0  0  0  0  0  0  0  0  0
   -4.8520   -0.5217    2.4469 H   0  0  0  0  0  0  0  0  0  0  0  0
   -4.2524    1.5109    1.9248 C   0  0  0  0  0  0  0  0  0  0  0  0
   -3.6491    1.8525    0.8242 N   0  0  0  0  0  0  0  0  0  0  0  0
   -3.0302    1.2022    0.3607 H   0  0  0  0  0  0  0  0  0  0  0  0
   -3.7869    2.7601    0.4189 H   0  0  0  0  0  0  0  0  0  0  0  0
   -5.0864    2.2158    2.5032 O   0  0  0  0  0  0  0  0  0  0  0  0
   -0.1653    2.6587   -0.1903 C   0  0  0  0  0  0  0  0  0  0  0  0
    0.5917    3.0772    0.2997 H   0  0  0  0  0  0  0  0  0  0  0  0
   -1.0319    2.9233    0.2191 H   0  0  0  0  0  0  0  0  0  0  0  0
   -0.1432    2.9684   -1.2351 H   0  0  0  0  0  0  0  0  0  0  0  0
   -0.0301    1.1701   -0.0800 C   0  0  0  0  0  0  0  0  0  0  0  0
    1.0908    0.4080   -0.0000 C   0  0  0  0  0  0  0  0  0  0  0  0
    2.0293    0.7338    0.0347 H   0  0  0  0  0  0  0  0  0  0  0  0
    0.6880   -0.9199    0.0265 N   0  0  0  0  0  0  0  0  0  0  0  0
   -0.6579   -0.9524    0.0535 C   0  0  0  0  0  0  0  0  0  0  0  0
   -1.2081   -1.7694    0.1060 H   0  0  0  0  0  0  0  0  0  0  0  0
   -1.0908    0.2942   -0.0000 N   0  0  0  0  0  0  0  0  0  0  0  0
   -2.0605    0.5694    0.0146 H   0  0  0  0  0  0  0  0  0  0  0  0
  1  5  1  0
  5  6  1  0
  5  9  2  0
  1  2  1  0
  1  3  1  0
  1  4  1  0
  6  7  1  0
  6  8  1  0
 10 14  1  0
 14 15  2  0
 15 17  1  0
 17 18  2  0
 18 20  1  0
 20 14  1  0
 10 11  1  0
 10 12  1  0
 10 13  1  0
 15 16  1  0
 18 19  1  0
 20 21  1  0
M  END
>  <PDB_ID>  (333) 
pdb6r1g

>  <RESIDUE_NAME>  (333) 
ASN   HID

>  <FRAG_NAME>  (333) 
ACEM   MIMD

>  <FRAG_ATOM_NUM>  (333) 
fragi: 9  fragj: 12

>  <atom.prop.CHAIN_ID>  (333) 
A A A A A A A A A Z Z Z Z Z Z Z Z Z Z Z Z

>  <atom.prop.IS_HEAVY_ATOM>  (333) 
1 0 0 0 1 1 0 0 1 1 0 0 0 1 1 0 1 1 0 1 0

>  <DIFUSE_FUNC_ATOM>  (333) 
n/a

>  <FINAL_SINGLE_POINT_ENERGY>  (333) 
0

>  <NONCOV_INTER_ENERGY_QM>  (333) 
0

>  <FF_Energy>  (333) 
7.46

>  <QM_Energy>  (333) 
13.86

>  <source>  (333) 
ACEM_MIMD

>  <Index>  (333) 
41299

$$$$
ACEM-pdb6s8l-B-GLN-136:MIMD-pdb6s8l-B-HID-6
     RDKit          3D

 21 20  0  0  0  0  0  0  0  0999 V2000
   -3.8267    1.8473    1.7471 C   0  0  0  0  0  0  0  0  0  0  0  0
   -3.1807    2.5713    1.5109 H   0  0  0  0  0  0  0  0  0  0  0  0
   -3.3284    1.0315    2.0366 H   0  0  0  0  0  0  0  0  0  0  0  0
   -4.4605    2.1881    2.5658 H   0  0  0  0  0  0  0  0  0  0  0  0
   -4.6300    1.4981    0.4962 C   0  0  0  0  0  0  0  0  0  0  0  0
   -4.0365    0.6957   -0.3831 N   0  0  0  0  0  0  0  0  0  0  0  0
   -4.5156    0.4109   -1.2299 H   0  0  0  0  0  0  0  0  0  0  0  0
   -3.0899    0.3723   -0.1908 H   0  0  0  0  0  0  0  0  0  0  0  0
   -5.7657    1.9481    0.3224 O   0  0  0  0  0  0  0  0  0  0  0  0
   -0.1888    2.6517    0.0219 C   0  0  0  0  0  0  0  0  0  0  0  0
   -1.1235    2.8666   -0.2883 H   0  0  0  0  0  0  0  0  0  0  0  0
    0.4610    3.0475   -0.6399 H   0  0  0  0  0  0  0  0  0  0  0  0
   -0.0244    3.1123    0.9960 H   0  0  0  0  0  0  0  0  0  0  0  0
   -0.0204    1.1666    0.0141 C   0  0  0  0  0  0  0  0  0  0  0  0
    1.0906    0.3916    0.0000 C   0  0  0  0  0  0  0  0  0  0  0  0
    2.0342    0.7084   -0.0051 H   0  0  0  0  0  0  0  0  0  0  0  0
    0.6701   -0.9166   -0.0041 N   0  0  0  0  0  0  0  0  0  0  0  0
   -0.6497   -0.9435   -0.0100 C   0  0  0  0  0  0  0  0  0  0  0  0
   -1.2159   -1.7628   -0.0193 H   0  0  0  0  0  0  0  0  0  0  0  0
   -1.0906    0.3020   -0.0000 N   0  0  0  0  0  0  0  0  0  0  0  0
   -2.0534    0.5753   -0.0028 H   0  0  0  0  0  0  0  0  0  0  0  0
  1  5  1  0
  5  6  1  0
  5  9  2  0
  1  2  1  0
  1  3  1  0
  1  4  1  0
  6  7  1  0
  6  8  1  0
 10 14  1  0
 14 15  2  0
 15 17  1  0
 17 18  2  0
 18 20  1  0
 20 14  1  0
 10 11  1  0
 10 12  1  0
 10 13  1  0
 15 16  1  0
 18 19  1  0
 20 21  1  0
M  END
>  <PDB_ID>  (334) 
pdb6s8l

>  <RESIDUE_NAME>  (334) 
GLN   HID

>  <FRAG_NAME>  (334) 
ACEM   MIMD

>  <FRAG_ATOM_NUM>  (334) 
fragi: 9  fragj: 12

>  <atom.prop.CHAIN_ID>  (334) 
A A A A A A A A A Z Z Z Z Z Z Z Z Z Z Z Z

>  <atom.prop.IS_HEAVY_ATOM>  (334) 
1 0 0 0 1 1 0 0 1 1 0 0 0 1 1 0 1 1 0 1 0

>  <DIFUSE_FUNC_ATOM>  (334) 
n/a

>  <FINAL_SINGLE_POINT_ENERGY>  (334) 
0

>  <NONCOV_INTER_ENERGY_QM>  (334) 
0

>  <FF_Energy>  (334) 
8.29

>  <QM_Energy>  (334) 
19.84

>  <source>  (334) 
ACEM_MIMD

>  <Index>  (334) 
41608

$$$$
ACEM-pdb5o5c-A-GLN-433:MIMD-pdb5o5c-A-HID-413
     RDKit          3D

 21 20  0  0  0  0  0  0  0  0999 V2000
   -5.0245    3.0675    0.2056 C   0  0  0  0  0  0  0  0  0  0  0  0
   -4.3851    3.5155    0.8635 H   0  0  0  0  0  0  0  0  0  0  0  0
   -5.8655    2.8358    0.7359 H   0  0  0  0  0  0  0  0  0  0  0  0
   -5.2894    3.7895   -0.5669 H   0  0  0  0  0  0  0  0  0  0  0  0
   -4.3889    1.7717   -0.2523 C   0  0  0  0  0  0  0  0  0  0  0  0
   -3.1338    1.8557   -0.7436 N   0  0  0  0  0  0  0  0  0  0  0  0
   -2.6479    1.0302   -1.0521 H   0  0  0  0  0  0  0  0  0  0  0  0
   -2.6990    2.7724   -0.7909 H   0  0  0  0  0  0  0  0  0  0  0  0
   -5.0463    0.7361   -0.2832 O   0  0  0  0  0  0  0  0  0  0  0  0
   -0.1590    2.6605   -0.0210 C   0  0  0  0  0  0  0  0  0  0  0  0
   -0.8937    2.8953   -0.6731 H   0  0  0  0  0  0  0  0  0  0  0  0
    0.7026    3.0549   -0.3709 H   0  0  0  0  0  0  0  0  0  0  0  0
   -0.3862    3.1068    0.9471 H   0  0  0  0  0  0  0  0  0  0  0  0
   -0.0133    1.1689   -0.0014 C   0  0  0  0  0  0  0  0  0  0  0  0
    1.0939    0.3859    0.0000 C   0  0  0  0  0  0  0  0  0  0  0  0
    2.0395    0.6977   -0.0045 H   0  0  0  0  0  0  0  0  0  0  0  0
    0.6660   -0.9182    0.0096 N   0  0  0  0  0  0  0  0  0  0  0  0
   -0.6528   -0.9423   -0.0082 C   0  0  0  0  0  0  0  0  0  0  0  0
   -1.2212   -1.7601   -0.0236 H   0  0  0  0  0  0  0  0  0  0  0  0
   -1.0939    0.3057   -0.0000 N   0  0  0  0  0  0  0  0  0  0  0  0
   -2.0520    0.5836    0.0059 H   0  0  0  0  0  0  0  0  0  0  0  0
  1  5  1  0
  5  6  1  0
  5  9  2  0
  1  2  1  0
  1  3  1  0
  1  4  1  0
  6  7  1  0
  6  8  1  0
 10 14  1  0
 14 15  2  0
 15 17  1  0
 17 18  2  0
 18 20  1  0
 20 14  1  0
 10 11  1  0
 10 12  1  0
 10 13  1  0
 15 16  1  0
 18 19  1  0
 20 21  1  0
M  END
>  <PDB_ID>  (335) 
pdb5o5c

>  <RESIDUE_NAME>  (335) 
GLN   HID

>  <FRAG_NAME>  (335) 
ACEM   MIMD

>  <FRAG_ATOM_NUM>  (335) 
fragi: 9  fragj: 12

>  <atom.prop.CHAIN_ID>  (335) 
A A A A A A A A A Z Z Z Z Z Z Z Z Z Z Z Z

>  <atom.prop.IS_HEAVY_ATOM>  (335) 
1 0 0 0 1 1 0 0 1 1 0 0 0 1 1 0 1 1 0 1 0

>  <DIFUSE_FUNC_ATOM>  (335) 
n/a

>  <FINAL_SINGLE_POINT_ENERGY>  (335) 
0

>  <NONCOV_INTER_ENERGY_QM>  (335) 
0

>  <FF_Energy>  (335) 
10.01

>  <QM_Energy>  (335) 
15.1

>  <source>  (335) 
ACEM_MIMD

>  <Index>  (335) 
41925

$$$$
ACEM-pdb5oe3-A-ASN-180:MIMD-pdb5oe3-A-HID-176
     RDKit          3D

 21 20  0  0  0  0  0  0  0  0999 V2000
   -6.2002    1.6395    0.9539 C   0  0  0  0  0  0  0  0  0  0  0  0
   -6.3813    0.6984    1.1043 H   0  0  0  0  0  0  0  0  0  0  0  0
   -6.8023    1.9871    0.2764 H   0  0  0  0  0  0  0  0  0  0  0  0
   -6.3667    2.1832    1.8838 H   0  0  0  0  0  0  0  0  0  0  0  0
   -4.7884    1.7612    0.4248 C   0  0  0  0  0  0  0  0  0  0  0  0
   -3.9895    0.7275    0.6478 N   0  0  0  0  0  0  0  0  0  0  0  0
   -3.1770    0.7421    0.3646 H   0  0  0  0  0  0  0  0  0  0  0  0
   -4.2789    0.0480    1.0877 H   0  0  0  0  0  0  0  0  0  0  0  0
   -4.4271    2.7553   -0.2097 O   0  0  0  0  0  0  0  0  0  0  0  0
   -0.1931    2.6492    0.0144 C   0  0  0  0  0  0  0  0  0  0  0  0
    0.6873    3.0557    0.0391 H   0  0  0  0  0  0  0  0  0  0  0  0
   -0.6965    2.8980    0.8056 H   0  0  0  0  0  0  0  0  0  0  0  0
   -0.7234    3.0036   -0.8694 H   0  0  0  0  0  0  0  0  0  0  0  0
   -0.0192    1.1664    0.0249 C   0  0  0  0  0  0  0  0  0  0  0  0
    1.0907    0.3918   -0.0000 C   0  0  0  0  0  0  0  0  0  0  0  0
    1.9716    0.6885    0.0069 H   0  0  0  0  0  0  0  0  0  0  0  0
    0.6697   -0.9166   -0.0111 N   0  0  0  0  0  0  0  0  0  0  0  0
   -0.6505   -0.9427   -0.0138 C   0  0  0  0  0  0  0  0  0  0  0  0
   -1.1797   -1.7073   -0.0206 H   0  0  0  0  0  0  0  0  0  0  0  0
   -1.0907    0.3012    0.0000 N   0  0  0  0  0  0  0  0  0  0  0  0
   -2.0536    0.5769   -0.0073 H   0  0  0  0  0  0  0  0  0  0  0  0
  1  5  1  0
  5  6  1  0
  5  9  2  0
  1  2  1  0
  1  3  1  0
  1  4  1  0
  6  7  1  0
  6  8  1  0
 10 14  1  0
 14 15  2  0
 15 17  1  0
 17 18  2  0
 18 20  1  0
 20 14  1  0
 10 11  1  0
 10 12  1  0
 10 13  1  0
 15 16  1  0
 18 19  1  0
 20 21  1  0
M  END
>  <PDB_ID>  (336) 
pdb5oe3

>  <RESIDUE_NAME>  (336) 
ASN   HID

>  <FRAG_NAME>  (336) 
ACEM   MIMD

>  <FRAG_ATOM_NUM>  (336) 
fragi: 9  fragj: 12

>  <atom.prop.CHAIN_ID>  (336) 
A A A A A A A A A Z Z Z Z Z Z Z Z Z Z Z Z

>  <atom.prop.IS_HEAVY_ATOM>  (336) 
1 0 0 0 1 1 0 0 1 1 0 0 0 1 1 0 1 1 0 1 0

>  <DIFUSE_FUNC_ATOM>  (336) 
n/a

>  <FINAL_SINGLE_POINT_ENERGY>  (336) 
0

>  <NONCOV_INTER_ENERGY_QM>  (336) 
0

>  <FF_Energy>  (336) 
5.67

>  <QM_Energy>  (336) 
13.59

>  <source>  (336) 
ACEM_MIMD

>  <Index>  (336) 
42034

$$$$
ACEM-pdb5oe3-B-ASN-180:MIMD-pdb5oe3-B-HID-176
     RDKit          3D

 21 20  0  0  0  0  0  0  0  0999 V2000
   -6.1905    1.5837    1.0042 C   0  0  0  0  0  0  0  0  0  0  0  0
   -6.3560    0.6457    1.1879 H   0  0  0  0  0  0  0  0  0  0  0  0
   -6.8053    1.8988    0.3233 H   0  0  0  0  0  0  0  0  0  0  0  0
   -6.3539    2.1552    1.9179 H   0  0  0  0  0  0  0  0  0  0  0  0
   -4.7886    1.7065    0.4553 C   0  0  0  0  0  0  0  0  0  0  0  0
   -3.9707    0.6922    0.6985 N   0  0  0  0  0  0  0  0  0  0  0  0
   -3.1629    0.7114    0.4039 H   0  0  0  0  0  0  0  0  0  0  0  0
   -4.2415    0.0238    1.1675 H   0  0  0  0  0  0  0  0  0  0  0  0
   -4.4578    2.6799   -0.2207 O   0  0  0  0  0  0  0  0  0  0  0  0
   -0.1920    2.6514   -0.0182 C   0  0  0  0  0  0  0  0  0  0  0  0
    0.6897    3.0566   -0.0107 H   0  0  0  0  0  0  0  0  0  0  0  0
   -0.6836    2.9109    0.7768 H   0  0  0  0  0  0  0  0  0  0  0  0
   -0.7338    2.9951   -0.8993 H   0  0  0  0  0  0  0  0  0  0  0  0
   -0.0198    1.1679    0.0092 C   0  0  0  0  0  0  0  0  0  0  0  0
    1.0911    0.3914    0.0000 C   0  0  0  0  0  0  0  0  0  0  0  0
    1.9720    0.6888    0.0003 H   0  0  0  0  0  0  0  0  0  0  0  0
    0.6695   -0.9171   -0.0017 N   0  0  0  0  0  0  0  0  0  0  0  0
   -0.6497   -0.9428   -0.0074 C   0  0  0  0  0  0  0  0  0  0  0  0
   -1.1794   -1.7084   -0.0029 H   0  0  0  0  0  0  0  0  0  0  0  0
   -1.0911    0.3006   -0.0000 N   0  0  0  0  0  0  0  0  0  0  0  0
   -2.0535    0.5757   -0.0016 H   0  0  0  0  0  0  0  0  0  0  0  0
  1  5  1  0
  5  6  1  0
  5  9  2  0
  1  2  1  0
  1  3  1  0
  1  4  1  0
  6  7  1  0
  6  8  1  0
 10 14  1  0
 14 15  2  0
 15 17  1  0
 17 18  2  0
 18 20  1  0
 20 14  1  0
 10 11  1  0
 10 12  1  0
 10 13  1  0
 15 16  1  0
 18 19  1  0
 20 21  1  0
M  END
>  <PDB_ID>  (337) 
pdb5oe3

>  <RESIDUE_NAME>  (337) 
ASN   HID

>  <FRAG_NAME>  (337) 
ACEM   MIMD

>  <FRAG_ATOM_NUM>  (337) 
fragi: 9  fragj: 12

>  <atom.prop.CHAIN_ID>  (337) 
A A A A A A A A A Z Z Z Z Z Z Z Z Z Z Z Z

>  <atom.prop.IS_HEAVY_ATOM>  (337) 
1 0 0 0 1 1 0 0 1 1 0 0 0 1 1 0 1 1 0 1 0

>  <DIFUSE_FUNC_ATOM>  (337) 
n/a

>  <FINAL_SINGLE_POINT_ENERGY>  (337) 
0

>  <NONCOV_INTER_ENERGY_QM>  (337) 
0

>  <FF_Energy>  (337) 
5.75

>  <QM_Energy>  (337) 
13.82

>  <source>  (337) 
ACEM_MIMD

>  <Index>  (337) 
42053

$$$$
ACEM-pdb5oe3-C-ASN-180:MIMD-pdb5oe3-C-HID-176
     RDKit          3D

 21 20  0  0  0  0  0  0  0  0999 V2000
   -6.1802    1.5604    0.9778 C   0  0  0  0  0  0  0  0  0  0  0  0
   -6.3504    0.6174    1.1243 H   0  0  0  0  0  0  0  0  0  0  0  0
   -6.7742    1.9012    0.2911 H   0  0  0  0  0  0  0  0  0  0  0  0
   -6.3668    2.1011    1.9056 H   0  0  0  0  0  0  0  0  0  0  0  0
   -4.7612    1.7029    0.4770 C   0  0  0  0  0  0  0  0  0  0  0  0
   -3.9536    0.6730    0.6905 N   0  0  0  0  0  0  0  0  0  0  0  0
   -3.1377    0.7025    0.4211 H   0  0  0  0  0  0  0  0  0  0  0  0
   -4.2410   -0.0176    1.1174 H   0  0  0  0  0  0  0  0  0  0  0  0
   -4.4070    2.7100   -0.1390 O   0  0  0  0  0  0  0  0  0  0  0  0
   -0.1873    2.6519    0.0216 C   0  0  0  0  0  0  0  0  0  0  0  0
    0.6951    3.0540    0.0529 H   0  0  0  0  0  0  0  0  0  0  0  0
   -0.6910    2.8972    0.8131 H   0  0  0  0  0  0  0  0  0  0  0  0
   -0.7125    3.0170   -0.8610 H   0  0  0  0  0  0  0  0  0  0  0  0
   -0.0163    1.1671    0.0250 C   0  0  0  0  0  0  0  0  0  0  0  0
    1.0910    0.3894   -0.0000 C   0  0  0  0  0  0  0  0  0  0  0  0
    1.9733    0.6833    0.0064 H   0  0  0  0  0  0  0  0  0  0  0  0
    0.6680   -0.9172   -0.0120 N   0  0  0  0  0  0  0  0  0  0  0  0
   -0.6517   -0.9421   -0.0130 C   0  0  0  0  0  0  0  0  0  0  0  0
   -1.1825   -1.7062   -0.0213 H   0  0  0  0  0  0  0  0  0  0  0  0
   -1.0910    0.3029    0.0000 N   0  0  0  0  0  0  0  0  0  0  0  0
   -2.0520    0.5799   -0.0078 H   0  0  0  0  0  0  0  0  0  0  0  0
  1  5  1  0
  5  6  1  0
  5  9  2  0
  1  2  1  0
  1  3  1  0
  1  4  1  0
  6  7  1  0
  6  8  1  0
 10 14  1  0
 14 15  2  0
 15 17  1  0
 17 18  2  0
 18 20  1  0
 20 14  1  0
 10 11  1  0
 10 12  1  0
 10 13  1  0
 15 16  1  0
 18 19  1  0
 20 21  1  0
M  END
>  <PDB_ID>  (338) 
pdb5oe3

>  <RESIDUE_NAME>  (338) 
ASN   HID

>  <FRAG_NAME>  (338) 
ACEM   MIMD

>  <FRAG_ATOM_NUM>  (338) 
fragi: 9  fragj: 12

>  <atom.prop.CHAIN_ID>  (338) 
A A A A A A A A A Z Z Z Z Z Z Z Z Z Z Z Z

>  <atom.prop.IS_HEAVY_ATOM>  (338) 
1 0 0 0 1 1 0 0 1 1 0 0 0 1 1 0 1 1 0 1 0

>  <DIFUSE_FUNC_ATOM>  (338) 
n/a

>  <FINAL_SINGLE_POINT_ENERGY>  (338) 
0

>  <NONCOV_INTER_ENERGY_QM>  (338) 
0

>  <FF_Energy>  (338) 
5.97

>  <QM_Energy>  (338) 
14.52

>  <source>  (338) 
ACEM_MIMD

>  <Index>  (338) 
42116

$$$$
ACEM-pdb5oe3-D-ASN-180:MIMD-pdb5oe3-D-HID-176
     RDKit          3D

 21 20  0  0  0  0  0  0  0  0999 V2000
   -6.2109    1.5710    1.0014 C   0  0  0  0  0  0  0  0  0  0  0  0
   -6.3949    0.6392    1.1962 H   0  0  0  0  0  0  0  0  0  0  0  0
   -6.8151    1.8886    0.3116 H   0  0  0  0  0  0  0  0  0  0  0  0
   -6.3714    2.1571    1.9063 H   0  0  0  0  0  0  0  0  0  0  0  0
   -4.7966    1.6625    0.4591 C   0  0  0  0  0  0  0  0  0  0  0  0
   -3.9922    0.6343    0.7302 N   0  0  0  0  0  0  0  0  0  0  0  0
   -3.1815    0.6348    0.4409 H   0  0  0  0  0  0  0  0  0  0  0  0
   -4.2765   -0.0193    1.2111 H   0  0  0  0  0  0  0  0  0  0  0  0
   -4.4464    2.6161   -0.2351 O   0  0  0  0  0  0  0  0  0  0  0  0
   -0.1940    2.6543   -0.0295 C   0  0  0  0  0  0  0  0  0  0  0  0
    0.6870    3.0605   -0.0224 H   0  0  0  0  0  0  0  0  0  0  0  0
   -0.6871    2.9140    0.7643 H   0  0  0  0  0  0  0  0  0  0  0  0
   -0.7358    2.9941   -0.9122 H   0  0  0  0  0  0  0  0  0  0  0  0
   -0.0176    1.1675    0.0008 C   0  0  0  0  0  0  0  0  0  0  0  0
    1.0907    0.3895   -0.0000 C   0  0  0  0  0  0  0  0  0  0  0  0
    1.9727    0.6852   -0.0038 H   0  0  0  0  0  0  0  0  0  0  0  0
    0.6688   -0.9179   -0.0008 N   0  0  0  0  0  0  0  0  0  0  0  0
   -0.6512   -0.9419   -0.0000 C   0  0  0  0  0  0  0  0  0  0  0  0
   -1.1821   -1.7061    0.0074 H   0  0  0  0  0  0  0  0  0  0  0  0
   -1.0907    0.3028    0.0000 N   0  0  0  0  0  0  0  0  0  0  0  0
   -2.0526    0.5785   -0.0014 H   0  0  0  0  0  0  0  0  0  0  0  0
  1  5  1  0
  5  6  1  0
  5  9  2  0
  1  2  1  0
  1  3  1  0
  1  4  1  0
  6  7  1  0
  6  8  1  0
 10 14  1  0
 14 15  2  0
 15 17  1  0
 17 18  2  0
 18 20  1  0
 20 14  1  0
 10 11  1  0
 10 12  1  0
 10 13  1  0
 15 16  1  0
 18 19  1  0
 20 21  1  0
M  END
>  <PDB_ID>  (339) 
pdb5oe3

>  <RESIDUE_NAME>  (339) 
ASN   HID

>  <FRAG_NAME>  (339) 
ACEM   MIMD

>  <FRAG_ATOM_NUM>  (339) 
fragi: 9  fragj: 12

>  <atom.prop.CHAIN_ID>  (339) 
A A A A A A A A A Z Z Z Z Z Z Z Z Z Z Z Z

>  <atom.prop.IS_HEAVY_ATOM>  (339) 
1 0 0 0 1 1 0 0 1 1 0 0 0 1 1 0 1 1 0 1 0

>  <DIFUSE_FUNC_ATOM>  (339) 
n/a

>  <FINAL_SINGLE_POINT_ENERGY>  (339) 
0

>  <NONCOV_INTER_ENERGY_QM>  (339) 
0

>  <FF_Energy>  (339) 
5.17

>  <QM_Energy>  (339) 
12.52

>  <source>  (339) 
ACEM_MIMD

>  <Index>  (339) 
42117

$$$$
ACEM-pdb5uzu-A-ASN-587:MIMD-pdb5uzu-A-HID-502
     RDKit          3D

 21 20  0  0  0  0  0  0  0  0999 V2000
   -5.7762   -1.5886    1.3974 C   0  0  0  0  0  0  0  0  0  0  0  0
   -6.3640   -0.8125    1.1767 H   0  0  0  0  0  0  0  0  0  0  0  0
   -5.6349   -1.6361    2.3841 H   0  0  0  0  0  0  0  0  0  0  0  0
   -6.2808   -2.5011    1.0795 H   0  0  0  0  0  0  0  0  0  0  0  0
   -4.4407   -1.3936    0.7247 C   0  0  0  0  0  0  0  0  0  0  0  0
   -3.9700   -0.1544    0.7068 N   0  0  0  0  0  0  0  0  0  0  0  0
   -4.4902    0.5887    1.1293 H   0  0  0  0  0  0  0  0  0  0  0  0
   -3.0895    0.0420    0.2697 H   0  0  0  0  0  0  0  0  0  0  0  0
   -3.8296   -2.3444    0.2369 O   0  0  0  0  0  0  0  0  0  0  0  0
   -0.1796    2.6517    0.0043 C   0  0  0  0  0  0  0  0  0  0  0  0
   -0.8403    2.8977    0.7221 H   0  0  0  0  0  0  0  0  0  0  0  0
   -0.5590    2.9281   -0.8854 H   0  0  0  0  0  0  0  0  0  0  0  0
    0.7513    3.1919    0.1774 H   0  0  0  0  0  0  0  0  0  0  0  0
   -0.0180    1.1664    0.0037 C   0  0  0  0  0  0  0  0  0  0  0  0
    1.0908    0.3896    0.0000 C   0  0  0  0  0  0  0  0  0  0  0  0
    2.0356    0.7056   -0.0001 H   0  0  0  0  0  0  0  0  0  0  0  0
    0.6693   -0.9169   -0.0027 N   0  0  0  0  0  0  0  0  0  0  0  0
   -0.6513   -0.9423   -0.0010 C   0  0  0  0  0  0  0  0  0  0  0  0
   -1.2176   -1.7618    0.0004 H   0  0  0  0  0  0  0  0  0  0  0  0
   -1.0908    0.3032   -0.0000 N   0  0  0  0  0  0  0  0  0  0  0  0
   -2.0526    0.5790   -0.0028 H   0  0  0  0  0  0  0  0  0  0  0  0
  1  5  1  0
  5  6  1  0
  5  9  2  0
  1  2  1  0
  1  3  1  0
  1  4  1  0
  6  7  1  0
  6  8  1  0
 10 14  1  0
 14 15  2  0
 15 17  1  0
 17 18  2  0
 18 20  1  0
 20 14  1  0
 10 11  1  0
 10 12  1  0
 10 13  1  0
 15 16  1  0
 18 19  1  0
 20 21  1  0
M  END
>  <PDB_ID>  (340) 
pdb5uzu

>  <RESIDUE_NAME>  (340) 
ASN   HID

>  <FRAG_NAME>  (340) 
ACEM   MIMD

>  <FRAG_ATOM_NUM>  (340) 
fragi: 9  fragj: 12

>  <atom.prop.CHAIN_ID>  (340) 
A A A A A A A A A Z Z Z Z Z Z Z Z Z Z Z Z

>  <atom.prop.IS_HEAVY_ATOM>  (340) 
1 0 0 0 1 1 0 0 1 1 0 0 0 1 1 0 1 1 0 1 0

>  <DIFUSE_FUNC_ATOM>  (340) 
n/a

>  <FINAL_SINGLE_POINT_ENERGY>  (340) 
0

>  <NONCOV_INTER_ENERGY_QM>  (340) 
0

>  <FF_Energy>  (340) 
5.68

>  <QM_Energy>  (340) 
13.87

>  <source>  (340) 
ACEM_MIMD

>  <Index>  (340) 
42883

$$$$
ACEM-pdb5w7a-B-ASN-293:MIMD-pdb5w7a-B-HID-199
     RDKit          3D

 21 20  0  0  0  0  0  0  0  0999 V2000
   -5.8567    2.1782   -1.5750 C   0  0  0  0  0  0  0  0  0  0  0  0
   -6.0694    1.3094   -1.9508 H   0  0  0  0  0  0  0  0  0  0  0  0
   -5.6366    2.8016   -2.2852 H   0  0  0  0  0  0  0  0  0  0  0  0
   -6.7229    2.5515   -1.0289 H   0  0  0  0  0  0  0  0  0  0  0  0
   -4.6425    2.0228   -0.6964 C   0  0  0  0  0  0  0  0  0  0  0  0
   -3.7656    1.1014   -1.0695 N   0  0  0  0  0  0  0  0  0  0  0  0
   -3.0541    0.9715   -0.6035 H   0  0  0  0  0  0  0  0  0  0  0  0
   -3.9076    0.6338   -1.7774 H   0  0  0  0  0  0  0  0  0  0  0  0
   -4.4886    2.7216    0.3065 O   0  0  0  0  0  0  0  0  0  0  0  0
   -0.1944    2.6572    0.0115 C   0  0  0  0  0  0  0  0  0  0  0  0
   -0.8668    2.8730    0.6772 H   0  0  0  0  0  0  0  0  0  0  0  0
   -0.5098    2.9191   -0.8673 H   0  0  0  0  0  0  0  0  0  0  0  0
    0.7133    3.2166    0.2379 H   0  0  0  0  0  0  0  0  0  0  0  0
   -0.0196    1.1689    0.0075 C   0  0  0  0  0  0  0  0  0  0  0  0
    1.0907    0.3919   -0.0000 C   0  0  0  0  0  0  0  0  0  0  0  0
    1.9718    0.6887    0.0030 H   0  0  0  0  0  0  0  0  0  0  0  0
    0.6701   -0.9173   -0.0036 N   0  0  0  0  0  0  0  0  0  0  0  0
   -0.6505   -0.9444   -0.0038 C   0  0  0  0  0  0  0  0  0  0  0  0
   -1.1787   -1.7094   -0.0083 H   0  0  0  0  0  0  0  0  0  0  0  0
   -1.0907    0.3008    0.0000 N   0  0  0  0  0  0  0  0  0  0  0  0
   -2.0541    0.5755   -0.0029 H   0  0  0  0  0  0  0  0  0  0  0  0
  1  5  1  0
  5  6  1  0
  5  9  2  0
  1  2  1  0
  1  3  1  0
  1  4  1  0
  6  7  1  0
  6  8  1  0
 10 14  1  0
 14 15  2  0
 15 17  1  0
 17 18  2  0
 18 20  1  0
 20 14  1  0
 10 11  1  0
 10 12  1  0
 10 13  1  0
 15 16  1  0
 18 19  1  0
 20 21  1  0
M  END
>  <PDB_ID>  (341) 
pdb5w7a

>  <RESIDUE_NAME>  (341) 
ASN   HID

>  <FRAG_NAME>  (341) 
ACEM   MIMD

>  <FRAG_ATOM_NUM>  (341) 
fragi: 9  fragj: 12

>  <atom.prop.CHAIN_ID>  (341) 
A A A A A A A A A Z Z Z Z Z Z Z Z Z Z Z Z

>  <atom.prop.IS_HEAVY_ATOM>  (341) 
1 0 0 0 1 1 0 0 1 1 0 0 0 1 1 0 1 1 0 1 0

>  <DIFUSE_FUNC_ATOM>  (341) 
n/a

>  <FINAL_SINGLE_POINT_ENERGY>  (341) 
0

>  <NONCOV_INTER_ENERGY_QM>  (341) 
0

>  <FF_Energy>  (341) 
5.03

>  <QM_Energy>  (341) 
11.87

>  <source>  (341) 
ACEM_MIMD

>  <Index>  (341) 
43233

$$$$
ACEM-pdb5wi4-A-ASN-133:MIMD-pdb5wi4-A-HID-78
     RDKit          3D

 21 20  0  0  0  0  0  0  0  0999 V2000
   -4.8373    1.0274   -1.1840 C   0  0  0  0  0  0  0  0  0  0  0  0
   -5.8275    0.9692   -1.2447 H   0  0  0  0  0  0  0  0  0  0  0  0
   -4.4555    0.1657   -0.8693 H   0  0  0  0  0  0  0  0  0  0  0  0
   -4.4416    1.2380   -2.1776 H   0  0  0  0  0  0  0  0  0  0  0  0
   -4.4793    2.1152   -0.1660 C   0  0  0  0  0  0  0  0  0  0  0  0
   -3.2077    2.1755    0.2082 N   0  0  0  0  0  0  0  0  0  0  0  0
   -2.5423    1.5329   -0.1776 H   0  0  0  0  0  0  0  0  0  0  0  0
   -2.9109    2.8595    0.8741 H   0  0  0  0  0  0  0  0  0  0  0  0
   -5.3363    2.8905    0.2686 O   0  0  0  0  0  0  0  0  0  0  0  0
   -0.1599    2.6611    0.0180 C   0  0  0  0  0  0  0  0  0  0  0  0
    0.6735    3.0591    0.4141 H   0  0  0  0  0  0  0  0  0  0  0  0
   -0.9398    2.8945    0.6073 H   0  0  0  0  0  0  0  0  0  0  0  0
   -0.3226    3.0831   -0.9737 H   0  0  0  0  0  0  0  0  0  0  0  0
   -0.0075    1.1669    0.0135 C   0  0  0  0  0  0  0  0  0  0  0  0
    1.0918    0.3855    0.0000 C   0  0  0  0  0  0  0  0  0  0  0  0
    2.0404    0.6913   -0.0026 H   0  0  0  0  0  0  0  0  0  0  0  0
    0.6631   -0.9241   -0.0081 N   0  0  0  0  0  0  0  0  0  0  0  0
   -0.6556   -0.9365   -0.0055 C   0  0  0  0  0  0  0  0  0  0  0  0
   -1.2292   -1.7553   -0.0060 H   0  0  0  0  0  0  0  0  0  0  0  0
   -1.0918    0.3082   -0.0000 N   0  0  0  0  0  0  0  0  0  0  0  0
   -2.0484    0.5920   -0.0049 H   0  0  0  0  0  0  0  0  0  0  0  0
  1  5  1  0
  5  6  1  0
  5  9  2  0
  1  2  1  0
  1  3  1  0
  1  4  1  0
  6  7  1  0
  6  8  1  0
 10 14  1  0
 14 15  2  0
 15 17  1  0
 17 18  2  0
 18 20  1  0
 20 14  1  0
 10 11  1  0
 10 12  1  0
 10 13  1  0
 15 16  1  0
 18 19  1  0
 20 21  1  0
M  END
>  <PDB_ID>  (342) 
pdb5wi4

>  <RESIDUE_NAME>  (342) 
ASN   HID

>  <FRAG_NAME>  (342) 
ACEM   MIMD

>  <FRAG_ATOM_NUM>  (342) 
fragi: 9  fragj: 12

>  <atom.prop.CHAIN_ID>  (342) 
A A A A A A A A A Z Z Z Z Z Z Z Z Z Z Z Z

>  <atom.prop.IS_HEAVY_ATOM>  (342) 
1 0 0 0 1 1 0 0 1 1 0 0 0 1 1 0 1 1 0 1 0

>  <DIFUSE_FUNC_ATOM>  (342) 
n/a

>  <FINAL_SINGLE_POINT_ENERGY>  (342) 
0

>  <NONCOV_INTER_ENERGY_QM>  (342) 
0

>  <FF_Energy>  (342) 
12.38

>  <QM_Energy>  (342) 
23.65

>  <source>  (342) 
ACEM_MIMD

>  <Index>  (342) 
43355

$$$$
ACEM-pdb5wx8-C-ASN-1390:MIMD-pdb5wx8-C-HID-1432
     RDKit          3D

 21 20  0  0  0  0  0  0  0  0999 V2000
   -5.8148    1.3904    0.5553 C   0  0  0  0  0  0  0  0  0  0  0  0
   -6.6614    0.8603    0.5273 H   0  0  0  0  0  0  0  0  0  0  0  0
   -5.9890    2.3195    0.2317 H   0  0  0  0  0  0  0  0  0  0  0  0
   -5.4805    1.4464    1.5913 H   0  0  0  0  0  0  0  0  0  0  0  0
   -4.8057    0.7452   -0.3343 C   0  0  0  0  0  0  0  0  0  0  0  0
   -3.5495    1.1674   -0.2199 N   0  0  0  0  0  0  0  0  0  0  0  0
   -3.3243    1.8807    0.4452 H   0  0  0  0  0  0  0  0  0  0  0  0
   -2.8340    0.7746   -0.7937 H   0  0  0  0  0  0  0  0  0  0  0  0
   -5.1460   -0.1293   -1.1334 O   0  0  0  0  0  0  0  0  0  0  0  0
   -0.1787    2.6726   -0.0070 C   0  0  0  0  0  0  0  0  0  0  0  0
   -0.5293    2.9433   -0.9109 H   0  0  0  0  0  0  0  0  0  0  0  0
    0.7309    3.0834    0.1172 H   0  0  0  0  0  0  0  0  0  0  0  0
   -0.8488    3.0532    0.7639 H   0  0  0  0  0  0  0  0  0  0  0  0
   -0.0181    1.1727    0.0016 C   0  0  0  0  0  0  0  0  0  0  0  0
    1.0911    0.3920   -0.0000 C   0  0  0  0  0  0  0  0  0  0  0  0
    2.0364    0.7065   -0.0003 H   0  0  0  0  0  0  0  0  0  0  0  0
    0.6694   -0.9182    0.0010 N   0  0  0  0  0  0  0  0  0  0  0  0
   -0.6513   -0.9467   -0.0026 C   0  0  0  0  0  0  0  0  0  0  0  0
   -1.2163   -1.7645   -0.0058 H   0  0  0  0  0  0  0  0  0  0  0  0
   -1.0911    0.3001    0.0000 N   0  0  0  0  0  0  0  0  0  0  0  0
   -2.0535    0.5753    0.0004 H   0  0  0  0  0  0  0  0  0  0  0  0
  1  5  1  0
  5  6  1  0
  5  9  2  0
  1  2  1  0
  1  3  1  0
  1  4  1  0
  6  7  1  0
  6  8  1  0
 10 14  1  0
 14 15  2  0
 15 17  1  0
 17 18  2  0
 18 20  1  0
 20 14  1  0
 10 11  1  0
 10 12  1  0
 10 13  1  0
 15 16  1  0
 18 19  1  0
 20 21  1  0
M  END
>  <PDB_ID>  (343) 
pdb5wx8

>  <RESIDUE_NAME>  (343) 
ASN   HID

>  <FRAG_NAME>  (343) 
ACEM   MIMD

>  <FRAG_ATOM_NUM>  (343) 
fragi: 9  fragj: 12

>  <atom.prop.CHAIN_ID>  (343) 
A A A A A A A A A Z Z Z Z Z Z Z Z Z Z Z Z

>  <atom.prop.IS_HEAVY_ATOM>  (343) 
1 0 0 0 1 1 0 0 1 1 0 0 0 1 1 0 1 1 0 1 0

>  <DIFUSE_FUNC_ATOM>  (343) 
n/a

>  <FINAL_SINGLE_POINT_ENERGY>  (343) 
0

>  <NONCOV_INTER_ENERGY_QM>  (343) 
0

>  <FF_Energy>  (343) 
13.59

>  <QM_Energy>  (343) 
24.01

>  <source>  (343) 
ACEM_MIMD

>  <Index>  (343) 
43469

$$$$
ACEM-pdb5wx8-D-ASN-1390:MIMD-pdb5wx8-D-HID-1432
     RDKit          3D

 21 20  0  0  0  0  0  0  0  0999 V2000
   -4.8897    2.4930    2.7063 C   0  0  0  0  0  0  0  0  0  0  0  0
   -5.8267    2.2943    2.9652 H   0  0  0  0  0  0  0  0  0  0  0  0
   -4.8126    3.4132    2.3418 H   0  0  0  0  0  0  0  0  0  0  0  0
   -4.2740    2.4353    3.6039 H   0  0  0  0  0  0  0  0  0  0  0  0
   -4.4531    1.5013    1.6389 C   0  0  0  0  0  0  0  0  0  0  0  0
   -3.4607    1.8707    0.8534 N   0  0  0  0  0  0  0  0  0  0  0  0
   -3.0284    2.7683    0.9814 H   0  0  0  0  0  0  0  0  0  0  0  0
   -3.1319    1.2634    0.1292 H   0  0  0  0  0  0  0  0  0  0  0  0
   -5.0244    0.4268    1.5115 O   0  0  0  0  0  0  0  0  0  0  0  0
   -0.1697    2.6566   -0.0184 C   0  0  0  0  0  0  0  0  0  0  0  0
   -0.8850    2.8812   -0.6964 H   0  0  0  0  0  0  0  0  0  0  0  0
    0.7006    3.0533   -0.3471 H   0  0  0  0  0  0  0  0  0  0  0  0
   -0.4289    3.1103    0.9381 H   0  0  0  0  0  0  0  0  0  0  0  0
   -0.0155    1.1674    0.0180 C   0  0  0  0  0  0  0  0  0  0  0  0
    1.0922    0.3890   -0.0000 C   0  0  0  0  0  0  0  0  0  0  0  0
    2.0370    0.7023   -0.0044 H   0  0  0  0  0  0  0  0  0  0  0  0
    0.6677   -0.9170   -0.0089 N   0  0  0  0  0  0  0  0  0  0  0  0
   -0.6522   -0.9422   -0.0091 C   0  0  0  0  0  0  0  0  0  0  0  0
   -1.2190   -1.7613   -0.0136 H   0  0  0  0  0  0  0  0  0  0  0  0
   -1.0922    0.3028    0.0000 N   0  0  0  0  0  0  0  0  0  0  0  0
   -2.0523    0.5806   -0.0063 H   0  0  0  0  0  0  0  0  0  0  0  0
  1  5  1  0
  5  6  1  0
  5  9  2  0
  1  2  1  0
  1  3  1  0
  1  4  1  0
  6  7  1  0
  6  8  1  0
 10 14  1  0
 14 15  2  0
 15 17  1  0
 17 18  2  0
 18 20  1  0
 20 14  1  0
 10 11  1  0
 10 12  1  0
 10 13  1  0
 15 16  1  0
 18 19  1  0
 20 21  1  0
M  END
>  <PDB_ID>  (344) 
pdb5wx8

>  <RESIDUE_NAME>  (344) 
ASN   HID

>  <FRAG_NAME>  (344) 
ACEM   MIMD

>  <FRAG_ATOM_NUM>  (344) 
fragi: 9  fragj: 12

>  <atom.prop.CHAIN_ID>  (344) 
A A A A A A A A A Z Z Z Z Z Z Z Z Z Z Z Z

>  <atom.prop.IS_HEAVY_ATOM>  (344) 
1 0 0 0 1 1 0 0 1 1 0 0 0 1 1 0 1 1 0 1 0

>  <DIFUSE_FUNC_ATOM>  (344) 
n/a

>  <FINAL_SINGLE_POINT_ENERGY>  (344) 
0

>  <NONCOV_INTER_ENERGY_QM>  (344) 
0

>  <FF_Energy>  (344) 
5.23

>  <QM_Energy>  (344) 
11.3

>  <source>  (344) 
ACEM_MIMD

>  <Index>  (344) 
43471

$$$$
ACEM-pdb5x6x-B-GLN-459:MIMD-pdb5x6x-B-HID-463
     RDKit          3D

 21 20  0  0  0  0  0  0  0  0999 V2000
   -2.9764   -1.9934    2.4786 C   0  0  0  0  0  0  0  0  0  0  0  0
   -3.8815   -1.7937    2.8482 H   0  0  0  0  0  0  0  0  0  0  0  0
   -2.7109   -1.2827    1.8308 H   0  0  0  0  0  0  0  0  0  0  0  0
   -2.2571   -2.0106    3.2973 H   0  0  0  0  0  0  0  0  0  0  0  0
   -3.0281   -3.3136    1.7588 C   0  0  0  0  0  0  0  0  0  0  0  0
   -2.0781   -3.5348    0.8690 N   0  0  0  0  0  0  0  0  0  0  0  0
   -2.0352   -4.4148    0.3471 H   0  0  0  0  0  0  0  0  0  0  0  0
   -1.3758   -2.8137    0.7017 H   0  0  0  0  0  0  0  0  0  0  0  0
   -3.9309   -4.1189    1.9804 O   0  0  0  0  0  0  0  0  0  0  0  0
   -0.1687    2.6606    0.0005 C   0  0  0  0  0  0  0  0  0  0  0  0
   -1.0265    2.8907    0.4648 H   0  0  0  0  0  0  0  0  0  0  0  0
   -0.2117    2.9803   -0.9478 H   0  0  0  0  0  0  0  0  0  0  0  0
    0.6530    3.1684    0.5054 H   0  0  0  0  0  0  0  0  0  0  0  0
   -0.0182    1.1686   -0.0080 C   0  0  0  0  0  0  0  0  0  0  0  0
    1.0912    0.3881    0.0000 C   0  0  0  0  0  0  0  0  0  0  0  0
    2.0361    0.7049    0.0030 H   0  0  0  0  0  0  0  0  0  0  0  0
    0.6698   -0.9178    0.0048 N   0  0  0  0  0  0  0  0  0  0  0  0
   -0.6515   -0.9417    0.0032 C   0  0  0  0  0  0  0  0  0  0  0  0
   -1.2182   -1.7613    0.0051 H   0  0  0  0  0  0  0  0  0  0  0  0
   -1.0912    0.3028    0.0000 N   0  0  0  0  0  0  0  0  0  0  0  0
   -2.0532    0.5787    0.0025 H   0  0  0  0  0  0  0  0  0  0  0  0
  1  5  1  0
  5  6  1  0
  5  9  2  0
  1  2  1  0
  1  3  1  0
  1  4  1  0
  6  7  1  0
  6  8  1  0
 10 14  1  0
 14 15  2  0
 15 17  1  0
 17 18  2  0
 18 20  1  0
 20 14  1  0
 10 11  1  0
 10 12  1  0
 10 13  1  0
 15 16  1  0
 18 19  1  0
 20 21  1  0
M  END
>  <PDB_ID>  (345) 
pdb5x6x

>  <RESIDUE_NAME>  (345) 
GLN   HID

>  <FRAG_NAME>  (345) 
ACEM   MIMD

>  <FRAG_ATOM_NUM>  (345) 
fragi: 9  fragj: 12

>  <atom.prop.CHAIN_ID>  (345) 
A A A A A A A A A Z Z Z Z Z Z Z Z Z Z Z Z

>  <atom.prop.IS_HEAVY_ATOM>  (345) 
1 0 0 0 1 1 0 0 1 1 0 0 0 1 1 0 1 1 0 1 0

>  <DIFUSE_FUNC_ATOM>  (345) 
n/a

>  <FINAL_SINGLE_POINT_ENERGY>  (345) 
0

>  <NONCOV_INTER_ENERGY_QM>  (345) 
0

>  <FF_Energy>  (345) 
1.34

>  <QM_Energy>  (345) 
8.88

>  <source>  (345) 
ACEM_MIMD

>  <Index>  (345) 
43571

$$$$
ACEM-pdb5xqh-A-GLN-152:MIMD-pdb5xqh-A-HID-119
     RDKit          3D

 21 20  0  0  0  0  0  0  0  0999 V2000
   -5.1546    2.4998    1.8626 C   0  0  0  0  0  0  0  0  0  0  0  0
   -5.8197    2.2039    2.5422 H   0  0  0  0  0  0  0  0  0  0  0  0
   -5.5880    3.1053    1.2008 H   0  0  0  0  0  0  0  0  0  0  0  0
   -4.3543    3.0425    2.3657 H   0  0  0  0  0  0  0  0  0  0  0  0
   -4.6408    1.2639    1.1219 C   0  0  0  0  0  0  0  0  0  0  0  0
   -3.6246    1.4516    0.2782 N   0  0  0  0  0  0  0  0  0  0  0  0
   -3.2275    0.6766   -0.2334 H   0  0  0  0  0  0  0  0  0  0  0  0
   -3.2582    2.3951    0.1599 H   0  0  0  0  0  0  0  0  0  0  0  0
   -5.1593    0.1634    1.2992 O   0  0  0  0  0  0  0  0  0  0  0  0
   -0.1824    2.6519    0.0022 C   0  0  0  0  0  0  0  0  0  0  0  0
    0.7258    3.0716   -0.1045 H   0  0  0  0  0  0  0  0  0  0  0  0
   -0.5594    2.9290    0.8928 H   0  0  0  0  0  0  0  0  0  0  0  0
   -0.8376    3.0169   -0.7888 H   0  0  0  0  0  0  0  0  0  0  0  0
   -0.0182    1.1684    0.0013 C   0  0  0  0  0  0  0  0  0  0  0  0
    1.0926    0.3888    0.0000 C   0  0  0  0  0  0  0  0  0  0  0  0
    2.0367    0.7036    0.0007 H   0  0  0  0  0  0  0  0  0  0  0  0
    0.6696   -0.9205   -0.0016 N   0  0  0  0  0  0  0  0  0  0  0  0
   -0.6514   -0.9431    0.0002 C   0  0  0  0  0  0  0  0  0  0  0  0
   -1.2196   -1.7602    0.0027 H   0  0  0  0  0  0  0  0  0  0  0  0
   -1.0926    0.3064   -0.0000 N   0  0  0  0  0  0  0  0  0  0  0  0
   -2.0533    0.5803   -0.0021 H   0  0  0  0  0  0  0  0  0  0  0  0
  1  5  1  0
  5  6  1  0
  5  9  2  0
  1  2  1  0
  1  3  1  0
  1  4  1  0
  6  7  1  0
  6  8  1  0
 10 14  1  0
 14 15  2  0
 15 17  1  0
 17 18  2  0
 18 20  1  0
 20 14  1  0
 10 11  1  0
 10 12  1  0
 10 13  1  0
 15 16  1  0
 18 19  1  0
 20 21  1  0
M  END
>  <PDB_ID>  (346) 
pdb5xqh

>  <RESIDUE_NAME>  (346) 
GLN   HID

>  <FRAG_NAME>  (346) 
ACEM   MIMD

>  <FRAG_ATOM_NUM>  (346) 
fragi: 9  fragj: 12

>  <atom.prop.CHAIN_ID>  (346) 
A A A A A A A A A Z Z Z Z Z Z Z Z Z Z Z Z

>  <atom.prop.IS_HEAVY_ATOM>  (346) 
1 0 0 0 1 1 0 0 1 1 0 0 0 1 1 0 1 1 0 1 0

>  <DIFUSE_FUNC_ATOM>  (346) 
n/a

>  <FINAL_SINGLE_POINT_ENERGY>  (346) 
0

>  <NONCOV_INTER_ENERGY_QM>  (346) 
0

>  <FF_Energy>  (346) 
8.27

>  <QM_Energy>  (346) 
16.29

>  <source>  (346) 
ACEM_MIMD

>  <Index>  (346) 
43789

$$$$
ACEM-pdb5xzt-C-ASN-101:MIMD-pdb5xzt-C-HID-8
     RDKit          3D

 21 20  0  0  0  0  0  0  0  0999 V2000
   -5.2941    2.3870   -1.0848 C   0  0  0  0  0  0  0  0  0  0  0  0
   -6.1601    2.2257   -1.5426 H   0  0  0  0  0  0  0  0  0  0  0  0
   -4.6956    2.9386   -1.6532 H   0  0  0  0  0  0  0  0  0  0  0  0
   -5.4892    2.9328   -0.1616 H   0  0  0  0  0  0  0  0  0  0  0  0
   -4.6278    1.0583   -0.8192 C   0  0  0  0  0  0  0  0  0  0  0  0
   -3.4896    1.0725   -0.1545 N   0  0  0  0  0  0  0  0  0  0  0  0
   -3.1084    1.9507    0.1565 H   0  0  0  0  0  0  0  0  0  0  0  0
   -3.0041    0.2244    0.0444 H   0  0  0  0  0  0  0  0  0  0  0  0
   -5.1307    0.0276   -1.2502 O   0  0  0  0  0  0  0  0  0  0  0  0
   -0.1559    2.6614    0.0373 C   0  0  0  0  0  0  0  0  0  0  0  0
   -0.4719    2.9480   -0.8807 H   0  0  0  0  0  0  0  0  0  0  0  0
    0.7602    3.0657    0.1837 H   0  0  0  0  0  0  0  0  0  0  0  0
   -0.8383    3.0690    0.7831 H   0  0  0  0  0  0  0  0  0  0  0  0
   -0.0151    1.1686    0.0402 C   0  0  0  0  0  0  0  0  0  0  0  0
    1.0902    0.3855   -0.0000 C   0  0  0  0  0  0  0  0  0  0  0  0
    2.0372    0.6995   -0.0138 H   0  0  0  0  0  0  0  0  0  0  0  0
    0.6681   -0.9229   -0.0167 N   0  0  0  0  0  0  0  0  0  0  0  0
   -0.6530   -0.9406   -0.0235 C   0  0  0  0  0  0  0  0  0  0  0  0
   -1.2245   -1.7564   -0.0414 H   0  0  0  0  0  0  0  0  0  0  0  0
   -1.0902    0.3094   -0.0000 N   0  0  0  0  0  0  0  0  0  0  0  0
   -2.0507    0.5859   -0.0108 H   0  0  0  0  0  0  0  0  0  0  0  0
  1  5  1  0
  5  6  1  0
  5  9  2  0
  1  2  1  0
  1  3  1  0
  1  4  1  0
  6  7  1  0
  6  8  1  0
 10 14  1  0
 14 15  2  0
 15 17  1  0
 17 18  2  0
 18 20  1  0
 20 14  1  0
 10 11  1  0
 10 12  1  0
 10 13  1  0
 15 16  1  0
 18 19  1  0
 20 21  1  0
M  END
>  <PDB_ID>  (347) 
pdb5xzt

>  <RESIDUE_NAME>  (347) 
ASN   HID

>  <FRAG_NAME>  (347) 
ACEM   MIMD

>  <FRAG_ATOM_NUM>  (347) 
fragi: 9  fragj: 12

>  <atom.prop.CHAIN_ID>  (347) 
A A A A A A A A A Z Z Z Z Z Z Z Z Z Z Z Z

>  <atom.prop.IS_HEAVY_ATOM>  (347) 
1 0 0 0 1 1 0 0 1 1 0 0 0 1 1 0 1 1 0 1 0

>  <DIFUSE_FUNC_ATOM>  (347) 
n/a

>  <FINAL_SINGLE_POINT_ENERGY>  (347) 
0

>  <NONCOV_INTER_ENERGY_QM>  (347) 
0

>  <FF_Energy>  (347) 
23.65

>  <QM_Energy>  (347) 
37.9

>  <source>  (347) 
ACEM_MIMD

>  <Index>  (347) 
43906

$$$$
ACEM-pdb5xzt-H-ASN-101:MIMD-pdb5xzt-H-HID-8
     RDKit          3D

 21 20  0  0  0  0  0  0  0  0999 V2000
   -5.2664    2.6659   -1.0044 C   0  0  0  0  0  0  0  0  0  0  0  0
   -6.1802    2.5228   -1.3660 H   0  0  0  0  0  0  0  0  0  0  0  0
   -4.7165    3.1938   -1.6417 H   0  0  0  0  0  0  0  0  0  0  0  0
   -5.3453    3.2223   -0.0705 H   0  0  0  0  0  0  0  0  0  0  0  0
   -4.6064    1.3053   -0.8085 C   0  0  0  0  0  0  0  0  0  0  0  0
   -3.4108    1.2820   -0.2282 N   0  0  0  0  0  0  0  0  0  0  0  0
   -2.9950    2.1510    0.0620 H   0  0  0  0  0  0  0  0  0  0  0  0
   -2.9359    0.4232   -0.0815 H   0  0  0  0  0  0  0  0  0  0  0  0
   -5.1806    0.2875   -1.1897 O   0  0  0  0  0  0  0  0  0  0  0  0
   -0.1673    2.6478    0.0327 C   0  0  0  0  0  0  0  0  0  0  0  0
   -0.6318    2.9177   -0.8272 H   0  0  0  0  0  0  0  0  0  0  0  0
    0.7574    3.0624    0.0181 H   0  0  0  0  0  0  0  0  0  0  0  0
   -0.7209    3.0706    0.8710 H   0  0  0  0  0  0  0  0  0  0  0  0
   -0.0191    1.1661    0.0436 C   0  0  0  0  0  0  0  0  0  0  0  0
    1.0910    0.3874   -0.0000 C   0  0  0  0  0  0  0  0  0  0  0  0
    2.0347    0.7056   -0.0190 H   0  0  0  0  0  0  0  0  0  0  0  0
    0.6702   -0.9177   -0.0109 N   0  0  0  0  0  0  0  0  0  0  0  0
   -0.6511   -0.9411   -0.0327 C   0  0  0  0  0  0  0  0  0  0  0  0
   -1.2182   -1.7585   -0.0664 H   0  0  0  0  0  0  0  0  0  0  0  0
   -1.0910    0.3053   -0.0000 N   0  0  0  0  0  0  0  0  0  0  0  0
   -2.0534    0.5798   -0.0068 H   0  0  0  0  0  0  0  0  0  0  0  0
  1  5  1  0
  5  6  1  0
  5  9  2  0
  1  2  1  0
  1  3  1  0
  1  4  1  0
  6  7  1  0
  6  8  1  0
 10 14  1  0
 14 15  2  0
 15 17  1  0
 17 18  2  0
 18 20  1  0
 20 14  1  0
 10 11  1  0
 10 12  1  0
 10 13  1  0
 15 16  1  0
 18 19  1  0
 20 21  1  0
M  END
>  <PDB_ID>  (348) 
pdb5xzt

>  <RESIDUE_NAME>  (348) 
ASN   HID

>  <FRAG_NAME>  (348) 
ACEM   MIMD

>  <FRAG_ATOM_NUM>  (348) 
fragi: 9  fragj: 12

>  <atom.prop.CHAIN_ID>  (348) 
A A A A A A A A A Z Z Z Z Z Z Z Z Z Z Z Z

>  <atom.prop.IS_HEAVY_ATOM>  (348) 
1 0 0 0 1 1 0 0 1 1 0 0 0 1 1 0 1 1 0 1 0

>  <DIFUSE_FUNC_ATOM>  (348) 
n/a

>  <FINAL_SINGLE_POINT_ENERGY>  (348) 
0

>  <NONCOV_INTER_ENERGY_QM>  (348) 
0

>  <FF_Energy>  (348) 
25.95

>  <QM_Energy>  (348) 
47.9

>  <source>  (348) 
ACEM_MIMD

>  <Index>  (348) 
43914

$$$$
ACEM-pdb5xzt-I-ASN-101:MIMD-pdb5xzt-I-HID-8
     RDKit          3D

 21 20  0  0  0  0  0  0  0  0999 V2000
   -5.4525    2.5084   -0.2432 C   0  0  0  0  0  0  0  0  0  0  0  0
   -6.4065    2.3308   -0.4669 H   0  0  0  0  0  0  0  0  0  0  0  0
   -5.0391    3.0910   -0.9372 H   0  0  0  0  0  0  0  0  0  0  0  0
   -5.4127    3.0289    0.7136 H   0  0  0  0  0  0  0  0  0  0  0  0
   -4.7100    1.1937   -0.2098 C   0  0  0  0  0  0  0  0  0  0  0  0
   -3.4050    1.2420    0.0301 N   0  0  0  0  0  0  0  0  0  0  0  0
   -2.9657    2.1326    0.1835 H   0  0  0  0  0  0  0  0  0  0  0  0
   -2.8653    0.4059    0.0576 H   0  0  0  0  0  0  0  0  0  0  0  0
   -5.3112    0.1431   -0.4172 O   0  0  0  0  0  0  0  0  0  0  0  0
   -0.1749    2.6515    0.0329 C   0  0  0  0  0  0  0  0  0  0  0  0
   -0.6964    2.9183   -0.7898 H   0  0  0  0  0  0  0  0  0  0  0  0
    0.7430    3.0678   -0.0356 H   0  0  0  0  0  0  0  0  0  0  0  0
   -0.6769    3.0540    0.9127 H   0  0  0  0  0  0  0  0  0  0  0  0
   -0.0186    1.1665    0.0296 C   0  0  0  0  0  0  0  0  0  0  0  0
    1.0905    0.3897   -0.0000 C   0  0  0  0  0  0  0  0  0  0  0  0
    2.0350    0.7053   -0.0079 H   0  0  0  0  0  0  0  0  0  0  0  0
    0.6690   -0.9178   -0.0151 N   0  0  0  0  0  0  0  0  0  0  0  0
   -0.6504   -0.9425   -0.0145 C   0  0  0  0  0  0  0  0  0  0  0  0
   -1.2178   -1.7605   -0.0222 H   0  0  0  0  0  0  0  0  0  0  0  0
   -1.0905    0.3041    0.0000 N   0  0  0  0  0  0  0  0  0  0  0  0
   -2.0520    0.5786   -0.0099 H   0  0  0  0  0  0  0  0  0  0  0  0
  1  5  1  0
  5  6  1  0
  5  9  2  0
  1  2  1  0
  1  3  1  0
  1  4  1  0
  6  7  1  0
  6  8  1  0
 10 14  1  0
 14 15  2  0
 15 17  1  0
 17 18  2  0
 18 20  1  0
 20 14  1  0
 10 11  1  0
 10 12  1  0
 10 13  1  0
 15 16  1  0
 18 19  1  0
 20 21  1  0
M  END
>  <PDB_ID>  (349) 
pdb5xzt

>  <RESIDUE_NAME>  (349) 
ASN   HID

>  <FRAG_NAME>  (349) 
ACEM   MIMD

>  <FRAG_ATOM_NUM>  (349) 
fragi: 9  fragj: 12

>  <atom.prop.CHAIN_ID>  (349) 
A A A A A A A A A Z Z Z Z Z Z Z Z Z Z Z Z

>  <atom.prop.IS_HEAVY_ATOM>  (349) 
1 0 0 0 1 1 0 0 1 1 0 0 0 1 1 0 1 1 0 1 0

>  <DIFUSE_FUNC_ATOM>  (349) 
n/a

>  <FINAL_SINGLE_POINT_ENERGY>  (349) 
0

>  <NONCOV_INTER_ENERGY_QM>  (349) 
0

>  <FF_Energy>  (349) 
31.23

>  <QM_Energy>  (349) 
58.07

>  <source>  (349) 
ACEM_MIMD

>  <Index>  (349) 
43917

$$$$
ACEM-pdb5ykr-B-GLN-51:MIMD-pdb5ykr-A-HID-313
     RDKit          3D

 21 20  0  0  0  0  0  0  0  0999 V2000
   -5.6479    2.9275    0.7731 C   0  0  0  0  0  0  0  0  0  0  0  0
   -5.4037    3.8592    1.0854 H   0  0  0  0  0  0  0  0  0  0  0  0
   -5.8597    2.3773    1.5967 H   0  0  0  0  0  0  0  0  0  0  0  0
   -6.5247    2.9741    0.1272 H   0  0  0  0  0  0  0  0  0  0  0  0
   -4.4493    2.3323    0.1117 C   0  0  0  0  0  0  0  0  0  0  0  0
   -3.7380    1.4781    0.8639 N   0  0  0  0  0  0  0  0  0  0  0  0
   -2.9097    1.0160    0.4806 H   0  0  0  0  0  0  0  0  0  0  0  0
   -4.0350    1.3007    1.8154 H   0  0  0  0  0  0  0  0  0  0  0  0
   -4.1431    2.6469   -1.0678 O   0  0  0  0  0  0  0  0  0  0  0  0
   -0.1779    2.6329   -0.0254 C   0  0  0  0  0  0  0  0  0  0  0  0
    0.6934    3.0614    0.2026 H   0  0  0  0  0  0  0  0  0  0  0  0
   -0.8734    2.9088    0.6340 H   0  0  0  0  0  0  0  0  0  0  0  0
   -0.4840    2.9705   -1.0156 H   0  0  0  0  0  0  0  0  0  0  0  0
   -0.0220    1.1613    0.0233 C   0  0  0  0  0  0  0  0  0  0  0  0
    1.1043    0.3895    0.0000 C   0  0  0  0  0  0  0  0  0  0  0  0
    2.0396    0.7106    0.0030 H   0  0  0  0  0  0  0  0  0  0  0  0
    0.6781   -0.9166   -0.0276 N   0  0  0  0  0  0  0  0  0  0  0  0
   -0.6561   -0.9383    0.0043 C   0  0  0  0  0  0  0  0  0  0  0  0
   -1.2156   -1.7632    0.0288 H   0  0  0  0  0  0  0  0  0  0  0  0
   -1.1043    0.3041   -0.0000 N   0  0  0  0  0  0  0  0  0  0  0  0
   -2.0588    0.5809   -0.0176 H   0  0  0  0  0  0  0  0  0  0  0  0
  1  5  1  0
  5  6  1  0
  5  9  2  0
  1  2  1  0
  1  3  1  0
  1  4  1  0
  6  7  1  0
  6  8  1  0
 10 14  1  0
 14 15  2  0
 15 17  1  0
 17 18  2  0
 18 20  1  0
 20 14  1  0
 10 11  1  0
 10 12  1  0
 10 13  1  0
 15 16  1  0
 18 19  1  0
 20 21  1  0
M  END
>  <PDB_ID>  (350) 
pdb5ykr

>  <RESIDUE_NAME>  (350) 
GLN   HID

>  <FRAG_NAME>  (350) 
ACEM   MIMD

>  <FRAG_ATOM_NUM>  (350) 
fragi: 9  fragj: 12

>  <atom.prop.CHAIN_ID>  (350) 
A A A A A A A A A Z Z Z Z Z Z Z Z Z Z Z Z

>  <atom.prop.IS_HEAVY_ATOM>  (350) 
1 0 0 0 1 1 0 0 1 1 0 0 0 1 1 0 1 1 0 1 0

>  <DIFUSE_FUNC_ATOM>  (350) 
n/a

>  <FINAL_SINGLE_POINT_ENERGY>  (350) 
0

>  <NONCOV_INTER_ENERGY_QM>  (350) 
0

>  <FF_Energy>  (350) 
7.1

>  <QM_Energy>  (350) 
18.75

>  <source>  (350) 
ACEM_MIMD

>  <Index>  (350) 
44108

$$$$
ACEM-pdb5ykr-A-ASN-231:MIMD-pdb5ykr-A-HID-428
     RDKit          3D

 21 20  0  0  0  0  0  0  0  0999 V2000
   -4.0184   -3.9594    0.2626 C   0  0  0  0  0  0  0  0  0  0  0  0
   -4.7572   -4.5729    0.5384 H   0  0  0  0  0  0  0  0  0  0  0  0
   -3.8339   -4.0720   -0.7131 H   0  0  0  0  0  0  0  0  0  0  0  0
   -4.3347   -2.9315    0.4401 H   0  0  0  0  0  0  0  0  0  0  0  0
   -2.7639   -4.3458    1.0348 C   0  0  0  0  0  0  0  0  0  0  0  0
   -1.7241   -3.6486    0.7296 N   0  0  0  0  0  0  0  0  0  0  0  0
   -1.7277   -2.9123    0.0530 H   0  0  0  0  0  0  0  0  0  0  0  0
   -0.8284   -3.8409    1.1951 H   0  0  0  0  0  0  0  0  0  0  0  0
   -2.7334   -5.3436    1.8602 O   0  0  0  0  0  0  0  0  0  0  0  0
   -0.0145    2.6762   -0.0218 C   0  0  0  0  0  0  0  0  0  0  0  0
    0.8743    3.0125    0.3060 H   0  0  0  0  0  0  0  0  0  0  0  0
   -0.7265    2.9773    0.6211 H   0  0  0  0  0  0  0  0  0  0  0  0
   -0.2157    3.1365   -0.9891 H   0  0  0  0  0  0  0  0  0  0  0  0
    0.0159    1.1705   -0.0353 C   0  0  0  0  0  0  0  0  0  0  0  0
    1.0899    0.3609   -0.0000 C   0  0  0  0  0  0  0  0  0  0  0  0
    2.0517    0.6527    0.0250 H   0  0  0  0  0  0  0  0  0  0  0  0
    0.6497   -0.9379   -0.0025 N   0  0  0  0  0  0  0  0  0  0  0  0
   -0.6656   -0.9286    0.0378 C   0  0  0  0  0  0  0  0  0  0  0  0
   -1.2569   -1.7305    0.0893 H   0  0  0  0  0  0  0  0  0  0  0  0
   -1.0899    0.3351    0.0000 N   0  0  0  0  0  0  0  0  0  0  0  0
   -2.0357    0.6282   -0.0035 H   0  0  0  0  0  0  0  0  0  0  0  0
  1  5  1  0
  5  6  1  0
  5  9  2  0
  1  2  1  0
  1  3  1  0
  1  4  1  0
  6  7  1  0
  6  8  1  0
 10 14  1  0
 14 15  2  0
 15 17  1  0
 17 18  2  0
 18 20  1  0
 20 14  1  0
 10 11  1  0
 10 12  1  0
 10 13  1  0
 15 16  1  0
 18 19  1  0
 20 21  1  0
M  END
>  <PDB_ID>  (351) 
pdb5ykr

>  <RESIDUE_NAME>  (351) 
ASN   HID

>  <FRAG_NAME>  (351) 
ACEM   MIMD

>  <FRAG_ATOM_NUM>  (351) 
fragi: 9  fragj: 12

>  <atom.prop.CHAIN_ID>  (351) 
A A A A A A A A A Z Z Z Z Z Z Z Z Z Z Z Z

>  <atom.prop.IS_HEAVY_ATOM>  (351) 
1 0 0 0 1 1 0 0 1 1 0 0 0 1 1 0 1 1 0 1 0

>  <DIFUSE_FUNC_ATOM>  (351) 
n/a

>  <FINAL_SINGLE_POINT_ENERGY>  (351) 
0

>  <NONCOV_INTER_ENERGY_QM>  (351) 
0

>  <FF_Energy>  (351) 
3.65

>  <QM_Energy>  (351) 
10.51

>  <source>  (351) 
ACEM_MIMD

>  <Index>  (351) 
44111

$$$$
ACEM-pdb5yrq-A-ASN-932:MIMD-pdb5yrq-D-HID-929
     RDKit          3D

 21 20  0  0  0  0  0  0  0  0999 V2000
   -5.2824    2.9567    2.0826 C   0  0  0  0  0  0  0  0  0  0  0  0
   -4.8917    3.5989    2.7318 H   0  0  0  0  0  0  0  0  0  0  0  0
   -5.6706    2.1744    2.5564 H   0  0  0  0  0  0  0  0  0  0  0  0
   -6.0759    3.4587    1.5292 H   0  0  0  0  0  0  0  0  0  0  0  0
   -4.1653    2.4588    1.1675 C   0  0  0  0  0  0  0  0  0  0  0  0
   -3.8836    1.1626    1.2171 N   0  0  0  0  0  0  0  0  0  0  0  0
   -4.4049    0.5669    1.8346 H   0  0  0  0  0  0  0  0  0  0  0  0
   -3.1612    0.7813    0.6464 H   0  0  0  0  0  0  0  0  0  0  0  0
   -3.5809    3.2360    0.4144 O   0  0  0  0  0  0  0  0  0  0  0  0
   -0.1804    2.6505   -0.0178 C   0  0  0  0  0  0  0  0  0  0  0  0
   -0.9044    2.8953   -0.6665 H   0  0  0  0  0  0  0  0  0  0  0  0
    0.6815    3.0669   -0.3169 H   0  0  0  0  0  0  0  0  0  0  0  0
   -0.4385    3.0375    0.9680 H   0  0  0  0  0  0  0  0  0  0  0  0
   -0.0171    1.1661   -0.0294 C   0  0  0  0  0  0  0  0  0  0  0  0
    1.0921    0.3888   -0.0000 C   0  0  0  0  0  0  0  0  0  0  0  0
    2.0369    0.7047    0.0093 H   0  0  0  0  0  0  0  0  0  0  0  0
    0.6693   -0.9167    0.0153 N   0  0  0  0  0  0  0  0  0  0  0  0
   -0.6522   -0.9415    0.0141 C   0  0  0  0  0  0  0  0  0  0  0  0
   -1.2185   -1.7609    0.0233 H   0  0  0  0  0  0  0  0  0  0  0  0
   -1.0921    0.3033   -0.0000 N   0  0  0  0  0  0  0  0  0  0  0  0
   -2.0528    0.5801    0.0081 H   0  0  0  0  0  0  0  0  0  0  0  0
  1  5  1  0
  5  6  1  0
  5  9  2  0
  1  2  1  0
  1  3  1  0
  1  4  1  0
  6  7  1  0
  6  8  1  0
 10 14  1  0
 14 15  2  0
 15 17  1  0
 17 18  2  0
 18 20  1  0
 20 14  1  0
 10 11  1  0
 10 12  1  0
 10 13  1  0
 15 16  1  0
 18 19  1  0
 20 21  1  0
M  END
>  <PDB_ID>  (352) 
pdb5yrq

>  <RESIDUE_NAME>  (352) 
ASN   HID

>  <FRAG_NAME>  (352) 
ACEM   MIMD

>  <FRAG_ATOM_NUM>  (352) 
fragi: 9  fragj: 12

>  <atom.prop.CHAIN_ID>  (352) 
A A A A A A A A A Z Z Z Z Z Z Z Z Z Z Z Z

>  <atom.prop.IS_HEAVY_ATOM>  (352) 
1 0 0 0 1 1 0 0 1 1 0 0 0 1 1 0 1 1 0 1 0

>  <DIFUSE_FUNC_ATOM>  (352) 
n/a

>  <FINAL_SINGLE_POINT_ENERGY>  (352) 
0

>  <NONCOV_INTER_ENERGY_QM>  (352) 
0

>  <FF_Energy>  (352) 
2.63

>  <QM_Energy>  (352) 
8.85

>  <source>  (352) 
ACEM_MIMD

>  <Index>  (352) 
44212

$$$$
ACEM-pdb5zfx-C-ASN-123:MIMD-pdb5zfx-C-HID-163
     RDKit          3D

 21 20  0  0  0  0  0  0  0  0999 V2000
   -4.6834    4.0169    0.8350 C   0  0  0  0  0  0  0  0  0  0  0  0
   -5.6297    4.2222    1.0779 H   0  0  0  0  0  0  0  0  0  0  0  0
   -4.4362    4.5002   -0.0027 H   0  0  0  0  0  0  0  0  0  0  0  0
   -4.0365    4.3671    1.6394 H   0  0  0  0  0  0  0  0  0  0  0  0
   -4.5555    2.5370    0.5957 C   0  0  0  0  0  0  0  0  0  0  0  0
   -3.3568    2.0985    0.2089 N   0  0  0  0  0  0  0  0  0  0  0  0
   -2.6037    2.7476    0.0994 H   0  0  0  0  0  0  0  0  0  0  0  0
   -3.2136    1.1280    0.0301 H   0  0  0  0  0  0  0  0  0  0  0  0
   -5.5366    1.8126    0.6502 O   0  0  0  0  0  0  0  0  0  0  0  0
   -0.1784    2.6509    0.0014 C   0  0  0  0  0  0  0  0  0  0  0  0
    0.6556    3.0665    0.3716 H   0  0  0  0  0  0  0  0  0  0  0  0
   -0.9529    2.8945    0.5899 H   0  0  0  0  0  0  0  0  0  0  0  0
   -0.3566    3.0439   -0.9995 H   0  0  0  0  0  0  0  0  0  0  0  0
   -0.0174    1.1672    0.0209 C   0  0  0  0  0  0  0  0  0  0  0  0
    1.0912    0.3891    0.0000 C   0  0  0  0  0  0  0  0  0  0  0  0
    2.0360    0.7042   -0.0051 H   0  0  0  0  0  0  0  0  0  0  0  0
    0.6689   -0.9177   -0.0120 N   0  0  0  0  0  0  0  0  0  0  0  0
   -0.6515   -0.9431   -0.0089 C   0  0  0  0  0  0  0  0  0  0  0  0
   -1.2189   -1.7605   -0.0111 H   0  0  0  0  0  0  0  0  0  0  0  0
   -1.0912    0.3045   -0.0000 N   0  0  0  0  0  0  0  0  0  0  0  0
   -2.0520    0.5795   -0.0077 H   0  0  0  0  0  0  0  0  0  0  0  0
  1  5  1  0
  5  6  1  0
  5  9  2  0
  1  2  1  0
  1  3  1  0
  1  4  1  0
  6  7  1  0
  6  8  1  0
 10 14  1  0
 14 15  2  0
 15 17  1  0
 17 18  2  0
 18 20  1  0
 20 14  1  0
 10 11  1  0
 10 12  1  0
 10 13  1  0
 15 16  1  0
 18 19  1  0
 20 21  1  0
M  END
>  <PDB_ID>  (353) 
pdb5zfx

>  <RESIDUE_NAME>  (353) 
ASN   HID

>  <FRAG_NAME>  (353) 
ACEM   MIMD

>  <FRAG_ATOM_NUM>  (353) 
fragi: 9  fragj: 12

>  <atom.prop.CHAIN_ID>  (353) 
A A A A A A A A A Z Z Z Z Z Z Z Z Z Z Z Z

>  <atom.prop.IS_HEAVY_ATOM>  (353) 
1 0 0 0 1 1 0 0 1 1 0 0 0 1 1 0 1 1 0 1 0

>  <DIFUSE_FUNC_ATOM>  (353) 
n/a

>  <FINAL_SINGLE_POINT_ENERGY>  (353) 
0

>  <NONCOV_INTER_ENERGY_QM>  (353) 
0

>  <FF_Energy>  (353) 
7.67

>  <QM_Energy>  (353) 
13.99

>  <source>  (353) 
ACEM_MIMD

>  <Index>  (353) 
44445

$$$$
ACEM-pdb5zsg-A-GLN-823:MIMD-pdb5zsg-A-HID-820
     RDKit          3D

 21 20  0  0  0  0  0  0  0  0999 V2000
   -5.3493    2.7610    1.4466 C   0  0  0  0  0  0  0  0  0  0  0  0
   -5.4889    2.8258    2.4299 H   0  0  0  0  0  0  0  0  0  0  0  0
   -6.2246    2.7577    0.9735 H   0  0  0  0  0  0  0  0  0  0  0  0
   -4.7617    3.6149    1.1095 H   0  0  0  0  0  0  0  0  0  0  0  0
   -4.6374    1.4552    1.1496 C   0  0  0  0  0  0  0  0  0  0  0  0
   -3.5564    1.5356    0.3912 N   0  0  0  0  0  0  0  0  0  0  0  0
   -3.0158    0.7022    0.1588 H   0  0  0  0  0  0  0  0  0  0  0  0
   -3.2670    2.4467    0.0380 H   0  0  0  0  0  0  0  0  0  0  0  0
   -5.0527    0.3825    1.6109 O   0  0  0  0  0  0  0  0  0  0  0  0
   -0.1790    2.6560    0.0254 C   0  0  0  0  0  0  0  0  0  0  0  0
    0.7381    3.0735    0.0307 H   0  0  0  0  0  0  0  0  0  0  0  0
   -0.6474    2.9122    0.8799 H   0  0  0  0  0  0  0  0  0  0  0  0
   -0.7434    3.0518   -0.8190 H   0  0  0  0  0  0  0  0  0  0  0  0
   -0.0173    1.1676    0.0065 C   0  0  0  0  0  0  0  0  0  0  0  0
    1.0919    0.3905    0.0000 C   0  0  0  0  0  0  0  0  0  0  0  0
    2.0364    0.7051    0.0003 H   0  0  0  0  0  0  0  0  0  0  0  0
    0.6691   -0.9176   -0.0063 N   0  0  0  0  0  0  0  0  0  0  0  0
   -0.6519   -0.9431   -0.0001 C   0  0  0  0  0  0  0  0  0  0  0  0
   -1.2182   -1.7619    0.0045 H   0  0  0  0  0  0  0  0  0  0  0  0
   -1.0919    0.3026   -0.0000 N   0  0  0  0  0  0  0  0  0  0  0  0
   -2.0533    0.5791   -0.0042 H   0  0  0  0  0  0  0  0  0  0  0  0
  1  5  1  0
  5  6  1  0
  5  9  2  0
  1  2  1  0
  1  3  1  0
  1  4  1  0
  6  7  1  0
  6  8  1  0
 10 14  1  0
 14 15  2  0
 15 17  1  0
 17 18  2  0
 18 20  1  0
 20 14  1  0
 10 11  1  0
 10 12  1  0
 10 13  1  0
 15 16  1  0
 18 19  1  0
 20 21  1  0
M  END
>  <PDB_ID>  (354) 
pdb5zsg

>  <RESIDUE_NAME>  (354) 
GLN   HID

>  <FRAG_NAME>  (354) 
ACEM   MIMD

>  <FRAG_ATOM_NUM>  (354) 
fragi: 9  fragj: 12

>  <atom.prop.CHAIN_ID>  (354) 
A A A A A A A A A Z Z Z Z Z Z Z Z Z Z Z Z

>  <atom.prop.IS_HEAVY_ATOM>  (354) 
1 0 0 0 1 1 0 0 1 1 0 0 0 1 1 0 1 1 0 1 0

>  <DIFUSE_FUNC_ATOM>  (354) 
n/a

>  <FINAL_SINGLE_POINT_ENERGY>  (354) 
0

>  <NONCOV_INTER_ENERGY_QM>  (354) 
0

>  <FF_Energy>  (354) 
13.08

>  <QM_Energy>  (354) 
29.8

>  <source>  (354) 
ACEM_MIMD

>  <Index>  (354) 
44538

$$$$
ACEM-pdb5zsg-B-GLN-823:MIMD-pdb5zsg-B-HID-820
     RDKit          3D

 21 20  0  0  0  0  0  0  0  0999 V2000
   -5.2925    2.7906    1.8422 C   0  0  0  0  0  0  0  0  0  0  0  0
   -5.3739    2.9103    2.8349 H   0  0  0  0  0  0  0  0  0  0  0  0
   -6.2082    2.8366    1.4328 H   0  0  0  0  0  0  0  0  0  0  0  0
   -4.6871    3.6027    1.4398 H   0  0  0  0  0  0  0  0  0  0  0  0
   -4.7112    1.4236    1.5692 C   0  0  0  0  0  0  0  0  0  0  0  0
   -3.6895    1.3861    0.7126 N   0  0  0  0  0  0  0  0  0  0  0  0
   -3.2335    0.5016    0.4875 H   0  0  0  0  0  0  0  0  0  0  0  0
   -3.3724    2.2527    0.2882 H   0  0  0  0  0  0  0  0  0  0  0  0
   -5.1663    0.4050    2.1237 O   0  0  0  0  0  0  0  0  0  0  0  0
   -0.1806    2.6590    0.0001 C   0  0  0  0  0  0  0  0  0  0  0  0
    0.7348    3.0757    0.0038 H   0  0  0  0  0  0  0  0  0  0  0  0
   -0.6548    2.9204    0.8473 H   0  0  0  0  0  0  0  0  0  0  0  0
   -0.7417    3.0415   -0.8525 H   0  0  0  0  0  0  0  0  0  0  0  0
   -0.0174    1.1673   -0.0058 C   0  0  0  0  0  0  0  0  0  0  0  0
    1.0914    0.3895   -0.0000 C   0  0  0  0  0  0  0  0  0  0  0  0
    2.0366    0.7046    0.0022 H   0  0  0  0  0  0  0  0  0  0  0  0
    0.6691   -0.9173    0.0029 N   0  0  0  0  0  0  0  0  0  0  0  0
   -0.6517   -0.9425    0.0029 C   0  0  0  0  0  0  0  0  0  0  0  0
   -1.2180   -1.7607    0.0060 H   0  0  0  0  0  0  0  0  0  0  0  0
   -1.0914    0.3030   -0.0000 N   0  0  0  0  0  0  0  0  0  0  0  0
   -2.0525    0.5792    0.0003 H   0  0  0  0  0  0  0  0  0  0  0  0
  1  5  1  0
  5  6  1  0
  5  9  2  0
  1  2  1  0
  1  3  1  0
  1  4  1  0
  6  7  1  0
  6  8  1  0
 10 14  1  0
 14 15  2  0
 15 17  1  0
 17 18  2  0
 18 20  1  0
 20 14  1  0
 10 11  1  0
 10 12  1  0
 10 13  1  0
 15 16  1  0
 18 19  1  0
 20 21  1  0
M  END
>  <PDB_ID>  (355) 
pdb5zsg

>  <RESIDUE_NAME>  (355) 
GLN   HID

>  <FRAG_NAME>  (355) 
ACEM   MIMD

>  <FRAG_ATOM_NUM>  (355) 
fragi: 9  fragj: 12

>  <atom.prop.CHAIN_ID>  (355) 
A A A A A A A A A Z Z Z Z Z Z Z Z Z Z Z Z

>  <atom.prop.IS_HEAVY_ATOM>  (355) 
1 0 0 0 1 1 0 0 1 1 0 0 0 1 1 0 1 1 0 1 0

>  <DIFUSE_FUNC_ATOM>  (355) 
n/a

>  <FINAL_SINGLE_POINT_ENERGY>  (355) 
0

>  <NONCOV_INTER_ENERGY_QM>  (355) 
0

>  <FF_Energy>  (355) 
7.02

>  <QM_Energy>  (355) 
13.34

>  <source>  (355) 
ACEM_MIMD

>  <Index>  (355) 
44541

$$$$
ACEM-pdb5zu7-A-ASN-35:MIMD-pdb5zu7-A-HID-92
     RDKit          3D

 21 20  0  0  0  0  0  0  0  0999 V2000
   -2.6717    0.5549   -3.2048 C   0  0  0  0  0  0  0  0  0  0  0  0
   -2.1969   -0.2766   -3.4753 H   0  0  0  0  0  0  0  0  0  0  0  0
   -2.1002    1.0963   -2.5954 H   0  0  0  0  0  0  0  0  0  0  0  0
   -2.8755    1.1427   -4.0999 H   0  0  0  0  0  0  0  0  0  0  0  0
   -3.9377    0.1728   -2.4706 C   0  0  0  0  0  0  0  0  0  0  0  0
   -3.8496    0.0393   -1.1463 N   0  0  0  0  0  0  0  0  0  0  0  0
   -2.9694    0.1988   -0.6956 H   0  0  0  0  0  0  0  0  0  0  0  0
   -4.6503   -0.2160   -0.6141 H   0  0  0  0  0  0  0  0  0  0  0  0
   -4.9943    0.0101   -3.0916 O   0  0  0  0  0  0  0  0  0  0  0  0
   -0.1676    2.6599    0.0577 C   0  0  0  0  0  0  0  0  0  0  0  0
    0.5422    3.0378    0.6605 H   0  0  0  0  0  0  0  0  0  0  0  0
   -1.0686    2.8776    0.4479 H   0  0  0  0  0  0  0  0  0  0  0  0
   -0.0847    3.1242   -0.9250 H   0  0  0  0  0  0  0  0  0  0  0  0
   -0.0160    1.1688    0.0301 C   0  0  0  0  0  0  0  0  0  0  0  0
    1.0925    0.3877   -0.0000 C   0  0  0  0  0  0  0  0  0  0  0  0
    2.0371    0.7027   -0.0098 H   0  0  0  0  0  0  0  0  0  0  0  0
    0.6705   -0.9210   -0.0131 N   0  0  0  0  0  0  0  0  0  0  0  0
   -0.6545   -0.9425   -0.0170 C   0  0  0  0  0  0  0  0  0  0  0  0
   -1.2216   -1.7590   -0.0286 H   0  0  0  0  0  0  0  0  0  0  0  0
   -1.0925    0.3070   -0.0000 N   0  0  0  0  0  0  0  0  0  0  0  0
   -2.0525    0.5838   -0.0085 H   0  0  0  0  0  0  0  0  0  0  0  0
  1  5  1  0
  5  6  1  0
  5  9  2  0
  1  2  1  0
  1  3  1  0
  1  4  1  0
  6  7  1  0
  6  8  1  0
 10 14  1  0
 14 15  2  0
 15 17  1  0
 17 18  2  0
 18 20  1  0
 20 14  1  0
 10 11  1  0
 10 12  1  0
 10 13  1  0
 15 16  1  0
 18 19  1  0
 20 21  1  0
M  END
>  <PDB_ID>  (356) 
pdb5zu7

>  <RESIDUE_NAME>  (356) 
ASN   HID

>  <FRAG_NAME>  (356) 
ACEM   MIMD

>  <FRAG_ATOM_NUM>  (356) 
fragi: 9  fragj: 12

>  <atom.prop.CHAIN_ID>  (356) 
A A A A A A A A A Z Z Z Z Z Z Z Z Z Z Z Z

>  <atom.prop.IS_HEAVY_ATOM>  (356) 
1 0 0 0 1 1 0 0 1 1 0 0 0 1 1 0 1 1 0 1 0

>  <DIFUSE_FUNC_ATOM>  (356) 
n/a

>  <FINAL_SINGLE_POINT_ENERGY>  (356) 
0

>  <NONCOV_INTER_ENERGY_QM>  (356) 
0

>  <FF_Energy>  (356) 
6.88

>  <QM_Energy>  (356) 
13.27

>  <source>  (356) 
ACEM_MIMD

>  <Index>  (356) 
44546

$$$$
