ACET-pdb2cov-D-GLU-397:PRPA-pdb2cov-D-ARG-429
     RDKit          3D

 18 16  0  0  0  0  0  0  0  0999 V2000
   -0.0320    1.4882   -0.1026 C   0  0  0  0  0  0  0  0  0  0  0  0
   -0.5156    1.7383   -0.9270 H   0  0  0  0  0  0  0  0  0  0  0  0
    0.8973    1.8242   -0.1138 H   0  0  0  0  0  0  0  0  0  0  0  0
   -0.5400    1.9819    0.7258 H   0  0  0  0  0  0  0  0  0  0  0  0
    0.0000    0.0000    0.0000 C   0  0  0  0  0  0  0  0  0  0  0  0
   -1.0669   -0.6001    0.0000 O   0  0  0  0  0  1  0  0  0  0  0  0
    1.0669   -0.5707    0.0000 O   0  0  0  0  0  0  0  0  0  0  0  0
    1.9983    0.1383   -3.4570 C   0  0  0  0  0  0  0  0  0  0  0  0
    1.5991    0.5313   -2.5845 H   0  0  0  0  0  0  0  0  0  0  0  0
    1.1635   -0.1390   -4.0071 H   0  0  0  0  0  0  0  0  0  0  0  0
    2.4896    0.9520   -3.9903 H   0  0  0  0  0  0  0  0  0  0  0  0
    2.7321   -1.0524   -3.1207 C   0  0  0  0  0  0  0  0  0  0  0  0
    3.2168   -1.4822   -3.8589 H   0  0  0  0  0  0  0  0  0  0  0  0
    3.2631   -1.0109   -2.2955 H   0  0  0  0  0  0  0  0  0  0  0  0
    1.5957   -2.3629   -2.6909 C   0  0  0  0  0  0  0  0  0  0  0  0
    2.1120   -2.7831   -1.8623 H   0  0  0  0  0  0  0  0  0  0  0  0
    0.8515   -1.7949   -2.1869 H   0  0  0  0  0  0  0  0  0  0  0  0
    1.1526   -3.1352   -3.3196 H   0  0  0  0  0  0  0  0  0  0  0  0
  1  5  1  0
  5  6  1  0
  5  7  2  0
  1  2  1  0
  1  3  1  0
  1  4  1  0
  8 12  1  0
 12 15  1  0
  8  9  1  0
  8 10  1  0
  8 11  1  0
 12 13  1  0
 12 14  1  0
 15 16  1  0
 15 17  1  0
 15 18  1  0
M  CHG  1   6  -1
M  END
>  <PDB_ID>  (1) 
pdb2cov

>  <RESIDUE_NAME>  (1) 
GLU   ARG

>  <FRAG_NAME>  (1) 
ACET   PRPA

>  <FRAG_ATOM_NUM>  (1) 
fragi: 7  fragj: 11

>  <atom.prop.CHAIN_ID>  (1) 
A A A A A A A Z Z Z Z Z Z Z Z Z Z Z

>  <atom.prop.IS_HEAVY_ATOM>  (1) 
1 0 0 0 1 1 1 1 0 0 0 1 0 0 1 0 0 0

>  <DIFUSE_FUNC_ATOM>  (1) 
atom 6   atom 7   

>  <FINAL_SINGLE_POINT_ENERGY>  (1) 
0

>  <NONCOV_INTER_ENERGY_QM>  (1) 
0

>  <Tinker_Supermolecular_Energy>  (1) 
-27.64

>  <QM_Energy>  (1) 
-5.28

>  <source>  (1) 
ACET_PRPA_01

>  <Index>  (1) 
6225

$$$$
ACET-pdb1n7q-A-ASP-271:PRPA-pdb1n7q-A-ARG-267
     RDKit          3D

 18 16  0  0  0  0  0  0  0  0999 V2000
   -0.0837    1.5100    0.0047 C   0  0  0  0  0  0  0  0  0  0  0  0
   -0.7876    1.8063    0.6393 H   0  0  0  0  0  0  0  0  0  0  0  0
   -0.2774    1.8401   -0.9110 H   0  0  0  0  0  0  0  0  0  0  0  0
    0.8375    2.0011    0.3182 H   0  0  0  0  0  0  0  0  0  0  0  0
    0.0000    0.0000    0.0000 C   0  0  0  0  0  0  0  0  0  0  0  0
   -1.1188   -0.6339   -0.0000 O   0  0  0  0  0  1  0  0  0  0  0  0
    1.1188   -0.5878    0.0000 O   0  0  0  0  0  0  0  0  0  0  0  0
   -0.2809   -1.7969    4.6974 C   0  0  0  0  0  0  0  0  0  0  0  0
    0.6247   -1.9793    4.3386 H   0  0  0  0  0  0  0  0  0  0  0  0
   -0.2315   -1.8040    5.7863 H   0  0  0  0  0  0  0  0  0  0  0  0
   -0.5914   -0.8026    4.3764 H   0  0  0  0  0  0  0  0  0  0  0  0
   -1.2094   -2.9829    4.2025 C   0  0  0  0  0  0  0  0  0  0  0  0
   -0.9060   -3.8660    4.6574 H   0  0  0  0  0  0  0  0  0  0  0  0
   -2.1704   -2.8388    4.5686 H   0  0  0  0  0  0  0  0  0  0  0  0
   -1.5206   -3.5080    2.5608 C   0  0  0  0  0  0  0  0  0  0  0  0
   -1.5463   -2.7161    2.0153 H   0  0  0  0  0  0  0  0  0  0  0  0
   -0.8414   -4.1523    2.3418 H   0  0  0  0  0  0  0  0  0  0  0  0
   -2.4815   -4.0079    2.4390 H   0  0  0  0  0  0  0  0  0  0  0  0
  1  5  1  0
  5  6  1  0
  5  7  2  0
  1  2  1  0
  1  3  1  0
  1  4  1  0
  8 12  1  0
 12 15  1  0
  8  9  1  0
  8 10  1  0
  8 11  1  0
 12 13  1  0
 12 14  1  0
 15 16  1  0
 15 17  1  0
 15 18  1  0
M  CHG  1   6  -1
M  END
>  <PDB_ID>  (2) 
pdb1n7q

>  <RESIDUE_NAME>  (2) 
ASP   ARG

>  <FRAG_NAME>  (2) 
ACET   PRPA

>  <FRAG_ATOM_NUM>  (2) 
fragi: 7  fragj: 11

>  <atom.prop.CHAIN_ID>  (2) 
A A A A A A A Z Z Z Z Z Z Z Z Z Z Z

>  <atom.prop.IS_HEAVY_ATOM>  (2) 
1 0 0 0 1 1 1 1 0 0 0 1 0 0 1 0 0 0

>  <DIFUSE_FUNC_ATOM>  (2) 
atom 6   atom 7   

>  <FINAL_SINGLE_POINT_ENERGY>  (2) 
0

>  <NONCOV_INTER_ENERGY_QM>  (2) 
0

>  <Tinker_Supermolecular_Energy>  (2) 
-20.71

>  <QM_Energy>  (2) 
-2.38

>  <source>  (2) 
ACET_PRPA_06

>  <Index>  (2) 
29354

$$$$
ACET-pdb1n7q-A-ASP-271:PRPA-pdb1n7q-A-ARG-267
     RDKit          3D

 18 16  0  0  0  0  0  0  0  0999 V2000
   -0.0837    1.5100    0.0047 C   0  0  0  0  0  0  0  0  0  0  0  0
   -0.7876    1.8063    0.6393 H   0  0  0  0  0  0  0  0  0  0  0  0
   -0.2774    1.8401   -0.9110 H   0  0  0  0  0  0  0  0  0  0  0  0
    0.8375    2.0011    0.3182 H   0  0  0  0  0  0  0  0  0  0  0  0
    0.0000    0.0000    0.0000 C   0  0  0  0  0  0  0  0  0  0  0  0
   -1.1188   -0.6339   -0.0000 O   0  0  0  0  0  1  0  0  0  0  0  0
    1.1188   -0.5878    0.0000 O   0  0  0  0  0  0  0  0  0  0  0  0
   -1.2094   -2.9829    4.2025 C   0  0  0  0  0  0  0  0  0  0  0  0
   -0.9060   -3.8660    4.6574 H   0  0  0  0  0  0  0  0  0  0  0  0
   -2.1704   -2.8388    4.5686 H   0  0  0  0  0  0  0  0  0  0  0  0
   -0.5710   -2.1675    4.5428 H   0  0  0  0  0  0  0  0  0  0  0  0
   -1.5206   -3.5080    2.5608 C   0  0  0  0  0  0  0  0  0  0  0  0
   -1.5463   -2.7161    2.0153 H   0  0  0  0  0  0  0  0  0  0  0  0
   -0.8414   -4.1523    2.3418 H   0  0  0  0  0  0  0  0  0  0  0  0
   -3.0332   -4.2949    2.3691 C   0  0  0  0  0  0  0  0  0  0  0  0
   -2.8241   -5.2695    2.5072 H   0  0  0  0  0  0  0  0  0  0  0  0
   -3.5791   -3.9728    3.1514 H   0  0  0  0  0  0  0  0  0  0  0  0
   -3.6077   -4.1736    1.4508 H   0  0  0  0  0  0  0  0  0  0  0  0
  1  5  1  0
  5  6  1  0
  5  7  2  0
  1  2  1  0
  1  3  1  0
  1  4  1  0
  8 12  1  0
 12 15  1  0
  8  9  1  0
  8 10  1  0
  8 11  1  0
 12 13  1  0
 12 14  1  0
 15 16  1  0
 15 17  1  0
 15 18  1  0
M  CHG  1   6  -1
M  END
>  <PDB_ID>  (3) 
pdb1n7q

>  <RESIDUE_NAME>  (3) 
ASP   ARG

>  <FRAG_NAME>  (3) 
ACET   PRPA

>  <FRAG_ATOM_NUM>  (3) 
fragi: 7  fragj: 11

>  <atom.prop.CHAIN_ID>  (3) 
A A A A A A A Z Z Z Z Z Z Z Z Z Z Z

>  <atom.prop.IS_HEAVY_ATOM>  (3) 
1 0 0 0 1 1 1 1 0 0 0 1 0 0 1 0 0 0

>  <DIFUSE_FUNC_ATOM>  (3) 
atom 6   atom 7   

>  <FINAL_SINGLE_POINT_ENERGY>  (3) 
0

>  <NONCOV_INTER_ENERGY_QM>  (3) 
0

>  <Tinker_Supermolecular_Energy>  (3) 
-22.01

>  <QM_Energy>  (3) 
-2.07

>  <source>  (3) 
ACET_PRPA_06

>  <Index>  (3) 
29358

$$$$
ACET-pdb4ffj-A-ASP-119:PRPA-pdb4ffj-A-LYS-92
     RDKit          3D

 18 16  0  0  0  0  0  0  0  0999 V2000
    0.1861    1.5910    0.0447 C   0  0  0  0  0  0  0  0  0  0  0  0
    0.9382    1.8266   -0.4781 H   0  0  0  0  0  0  0  0  0  0  0  0
    0.1354    1.8813    0.9427 H   0  0  0  0  0  0  0  0  0  0  0  0
   -0.6816    2.0139   -0.4618 H   0  0  0  0  0  0  0  0  0  0  0  0
    0.0000    0.0000    0.0000 C   0  0  0  0  0  0  0  0  0  0  0  0
   -1.0760   -0.4940   -0.0000 O   0  0  0  0  0  1  0  0  0  0  0  0
    1.0760   -0.6248   -0.0000 O   0  0  0  0  0  0  0  0  0  0  0  0
   -3.8099    2.3338    2.6258 C   0  0  0  0  0  0  0  0  0  0  0  0
   -2.9115    2.5007    2.8536 H   0  0  0  0  0  0  0  0  0  0  0  0
   -4.4214    2.0508    3.2834 H   0  0  0  0  0  0  0  0  0  0  0  0
   -4.2192    3.1718    2.0616 H   0  0  0  0  0  0  0  0  0  0  0  0
   -3.7163    0.9418    1.4975 C   0  0  0  0  0  0  0  0  0  0  0  0
   -4.5769    0.7972    1.2556 H   0  0  0  0  0  0  0  0  0  0  0  0
   -3.0044    1.1323    0.9713 H   0  0  0  0  0  0  0  0  0  0  0  0
   -3.2614   -0.2740    2.5817 C   0  0  0  0  0  0  0  0  0  0  0  0
   -2.4616    0.0300    2.9936 H   0  0  0  0  0  0  0  0  0  0  0  0
   -4.0211   -0.4326    3.1295 H   0  0  0  0  0  0  0  0  0  0  0  0
   -3.0580   -1.1442    1.9576 H   0  0  0  0  0  0  0  0  0  0  0  0
  1  5  1  0
  5  6  1  0
  5  7  2  0
  1  2  1  0
  1  3  1  0
  1  4  1  0
  8 12  1  0
 12 15  1  0
  8  9  1  0
  8 10  1  0
  8 11  1  0
 12 13  1  0
 12 14  1  0
 15 16  1  0
 15 17  1  0
 15 18  1  0
M  CHG  1   6  -1
M  END
>  <PDB_ID>  (4) 
pdb4ffj

>  <RESIDUE_NAME>  (4) 
ASP   LYS

>  <FRAG_NAME>  (4) 
ACET   PRPA

>  <FRAG_ATOM_NUM>  (4) 
fragi: 7  fragj: 11

>  <atom.prop.CHAIN_ID>  (4) 
A A A A A A A Z Z Z Z Z Z Z Z Z Z Z

>  <atom.prop.IS_HEAVY_ATOM>  (4) 
1 0 0 0 1 1 1 1 0 0 0 1 0 0 1 0 0 0

>  <DIFUSE_FUNC_ATOM>  (4) 
atom 6   atom 7   

>  <FINAL_SINGLE_POINT_ENERGY>  (4) 
0

>  <NONCOV_INTER_ENERGY_QM>  (4) 
0

>  <Tinker_Supermolecular_Energy>  (4) 
-27.02

>  <QM_Energy>  (4) 
-3.78

>  <source>  (4) 
ACET_PRPA_15

>  <Index>  (4) 
7983

$$$$
ACET-pdb4ffj-A-GLU-157:PRPA-pdb4ffj-A-LYS-151
     RDKit          3D

 18 16  0  0  0  0  0  0  0  0999 V2000
   -0.1437    1.6907    0.2196 C   0  0  0  0  0  0  0  0  0  0  0  0
   -0.2238    2.0280   -0.6494 H   0  0  0  0  0  0  0  0  0  0  0  0
    0.5846    1.9128    0.7641 H   0  0  0  0  0  0  0  0  0  0  0  0
   -1.0697    1.8796    0.7628 H   0  0  0  0  0  0  0  0  0  0  0  0
    0.0000    0.0000    0.0000 C   0  0  0  0  0  0  0  0  0  0  0  0
   -1.0137   -0.6108   -0.0000 O   0  0  0  0  0  1  0  0  0  0  0  0
    1.0137   -0.3670   -0.0000 O   0  0  0  0  0  0  0  0  0  0  0  0
    1.7922    1.6443   -3.3110 C   0  0  0  0  0  0  0  0  0  0  0  0
    1.0410    1.5423   -2.7779 H   0  0  0  0  0  0  0  0  0  0  0  0
    1.7644    1.6509   -4.2373 H   0  0  0  0  0  0  0  0  0  0  0  0
    2.2750    2.5717   -3.0030 H   0  0  0  0  0  0  0  0  0  0  0  0
    2.8894    0.6212   -2.8429 C   0  0  0  0  0  0  0  0  0  0  0  0
    3.7477    0.8089   -3.2309 H   0  0  0  0  0  0  0  0  0  0  0  0
    2.8710    0.4783   -1.8935 H   0  0  0  0  0  0  0  0  0  0  0  0
    2.4962   -0.9895   -3.4986 C   0  0  0  0  0  0  0  0  0  0  0  0
    3.0137   -1.5764   -2.9721 H   0  0  0  0  0  0  0  0  0  0  0  0
    1.5553   -1.0244   -3.4571 H   0  0  0  0  0  0  0  0  0  0  0  0
    2.8335   -1.0080   -4.5349 H   0  0  0  0  0  0  0  0  0  0  0  0
  1  5  1  0
  5  6  1  0
  5  7  2  0
  1  2  1  0
  1  3  1  0
  1  4  1  0
  8 12  1  0
 12 15  1  0
  8  9  1  0
  8 10  1  0
  8 11  1  0
 12 13  1  0
 12 14  1  0
 15 16  1  0
 15 17  1  0
 15 18  1  0
M  CHG  1   6  -1
M  END
>  <PDB_ID>  (5) 
pdb4ffj

>  <RESIDUE_NAME>  (5) 
GLU   LYS

>  <FRAG_NAME>  (5) 
ACET   PRPA

>  <FRAG_ATOM_NUM>  (5) 
fragi: 7  fragj: 11

>  <atom.prop.CHAIN_ID>  (5) 
A A A A A A A Z Z Z Z Z Z Z Z Z Z Z

>  <atom.prop.IS_HEAVY_ATOM>  (5) 
1 0 0 0 1 1 1 1 0 0 0 1 0 0 1 0 0 0

>  <DIFUSE_FUNC_ATOM>  (5) 
atom 6   atom 7   

>  <FINAL_SINGLE_POINT_ENERGY>  (5) 
0

>  <NONCOV_INTER_ENERGY_QM>  (5) 
0

>  <Tinker_Supermolecular_Energy>  (5) 
-25.6

>  <QM_Energy>  (5) 
-4.02

>  <source>  (5) 
ACET_PRPA_15

>  <Index>  (5) 
8369

$$$$
ACET-pdb4ffj-A-GLU-157:PRPA-pdb4ffj-A-LYS-151
     RDKit          3D

 18 16  0  0  0  0  0  0  0  0999 V2000
   -0.1437    1.6907    0.2196 C   0  0  0  0  0  0  0  0  0  0  0  0
   -0.2238    2.0280   -0.6494 H   0  0  0  0  0  0  0  0  0  0  0  0
    0.5846    1.9128    0.7641 H   0  0  0  0  0  0  0  0  0  0  0  0
   -1.0697    1.8796    0.7628 H   0  0  0  0  0  0  0  0  0  0  0  0
    0.0000    0.0000    0.0000 C   0  0  0  0  0  0  0  0  0  0  0  0
   -1.0137   -0.6108   -0.0000 O   0  0  0  0  0  1  0  0  0  0  0  0
    1.0137   -0.3670   -0.0000 O   0  0  0  0  0  0  0  0  0  0  0  0
    2.8894    0.6212   -2.8429 C   0  0  0  0  0  0  0  0  0  0  0  0
    3.7477    0.8089   -3.2309 H   0  0  0  0  0  0  0  0  0  0  0  0
    2.8710    0.4783   -1.8935 H   0  0  0  0  0  0  0  0  0  0  0  0
    2.1284    1.3308   -3.1676 H   0  0  0  0  0  0  0  0  0  0  0  0
    2.4962   -0.9895   -3.4986 C   0  0  0  0  0  0  0  0  0  0  0  0
    3.0137   -1.5764   -2.9721 H   0  0  0  0  0  0  0  0  0  0  0  0
    1.5553   -1.0244   -3.4571 H   0  0  0  0  0  0  0  0  0  0  0  0
    2.9965   -1.0170   -5.0357 C   0  0  0  0  0  0  0  0  0  0  0  0
    2.5093   -0.3460   -5.5235 H   0  0  0  0  0  0  0  0  0  0  0  0
    3.9551   -0.9315   -5.0421 H   0  0  0  0  0  0  0  0  0  0  0  0
    2.7322   -1.9965   -5.4341 H   0  0  0  0  0  0  0  0  0  0  0  0
  1  5  1  0
  5  6  1  0
  5  7  2  0
  1  2  1  0
  1  3  1  0
  1  4  1  0
  8 12  1  0
 12 15  1  0
  8  9  1  0
  8 10  1  0
  8 11  1  0
 12 13  1  0
 12 14  1  0
 15 16  1  0
 15 17  1  0
 15 18  1  0
M  CHG  1   6  -1
M  END
>  <PDB_ID>  (6) 
pdb4ffj

>  <RESIDUE_NAME>  (6) 
GLU   LYS

>  <FRAG_NAME>  (6) 
ACET   PRPA

>  <FRAG_ATOM_NUM>  (6) 
fragi: 7  fragj: 11

>  <atom.prop.CHAIN_ID>  (6) 
A A A A A A A Z Z Z Z Z Z Z Z Z Z Z

>  <atom.prop.IS_HEAVY_ATOM>  (6) 
1 0 0 0 1 1 1 1 0 0 0 1 0 0 1 0 0 0

>  <DIFUSE_FUNC_ATOM>  (6) 
atom 6   atom 7   

>  <FINAL_SINGLE_POINT_ENERGY>  (6) 
0

>  <NONCOV_INTER_ENERGY_QM>  (6) 
0

>  <Tinker_Supermolecular_Energy>  (6) 
-20.97

>  <QM_Energy>  (6) 
-2.74

>  <source>  (6) 
ACET_PRPA_15

>  <Index>  (6) 
8377

$$$$
ACET-pdb4ffj-A-ASP-202:PRPA-pdb4ffj-A-LYS-151
     RDKit          3D

 18 16  0  0  0  0  0  0  0  0999 V2000
   -0.4902    1.6064   -0.0663 C   0  0  0  0  0  0  0  0  0  0  0  0
   -1.0257    1.7291   -0.8136 H   0  0  0  0  0  0  0  0  0  0  0  0
    0.2296    2.1513    0.1414 H   0  0  0  0  0  0  0  0  0  0  0  0
   -1.1765    1.7611    0.7663 H   0  0  0  0  0  0  0  0  0  0  0  0
    0.0000    0.0000    0.0000 C   0  0  0  0  0  0  0  0  0  0  0  0
   -0.9952   -0.8438   -0.0000 O   0  0  0  0  0  1  0  0  0  0  0  0
    0.9952   -0.2067    0.0000 O   0  0  0  0  0  0  0  0  0  0  0  0
    2.7236   -4.7755   -3.5593 C   0  0  0  0  0  0  0  0  0  0  0  0
    2.0009   -4.2513   -3.9133 H   0  0  0  0  0  0  0  0  0  0  0  0
    2.6716   -5.7244   -3.6973 H   0  0  0  0  0  0  0  0  0  0  0  0
    3.6974   -4.3717   -3.8363 H   0  0  0  0  0  0  0  0  0  0  0  0
    2.5104   -4.6144   -1.7965 C   0  0  0  0  0  0  0  0  0  0  0  0
    1.8045   -5.2091   -1.6025 H   0  0  0  0  0  0  0  0  0  0  0  0
    3.3721   -4.7770   -1.4511 H   0  0  0  0  0  0  0  0  0  0  0  0
    2.0620   -3.0888   -1.5050 C   0  0  0  0  0  0  0  0  0  0  0  0
    2.7698   -2.5056   -1.7956 H   0  0  0  0  0  0  0  0  0  0  0  0
    1.2018   -2.9446   -1.9117 H   0  0  0  0  0  0  0  0  0  0  0  0
    1.9558   -2.9942   -0.4243 H   0  0  0  0  0  0  0  0  0  0  0  0
  1  5  1  0
  5  6  1  0
  5  7  2  0
  1  2  1  0
  1  3  1  0
  1  4  1  0
  8 12  1  0
 12 15  1  0
  8  9  1  0
  8 10  1  0
  8 11  1  0
 12 13  1  0
 12 14  1  0
 15 16  1  0
 15 17  1  0
 15 18  1  0
M  CHG  1   6  -1
M  END
>  <PDB_ID>  (7) 
pdb4ffj

>  <RESIDUE_NAME>  (7) 
ASP   LYS

>  <FRAG_NAME>  (7) 
ACET   PRPA

>  <FRAG_ATOM_NUM>  (7) 
fragi: 7  fragj: 11

>  <atom.prop.CHAIN_ID>  (7) 
A A A A A A A Z Z Z Z Z Z Z Z Z Z Z

>  <atom.prop.IS_HEAVY_ATOM>  (7) 
1 0 0 0 1 1 1 1 0 0 0 1 0 0 1 0 0 0

>  <DIFUSE_FUNC_ATOM>  (7) 
atom 6   atom 7   

>  <FINAL_SINGLE_POINT_ENERGY>  (7) 
0

>  <NONCOV_INTER_ENERGY_QM>  (7) 
0

>  <Tinker_Supermolecular_Energy>  (7) 
-24.56

>  <QM_Energy>  (7) 
-2.02

>  <source>  (7) 
ACET_PRPA_15

>  <Index>  (7) 
8434

$$$$
ACET-pdb3nxa-B-GLU-98:PRPA-pdb3nxa-A-ILE-13
     RDKit          3D

 18 16  0  0  0  0  0  0  0  0999 V2000
   -0.0473    1.5310   -0.1193 C   0  0  0  0  0  0  0  0  0  0  0  0
    0.8769    1.8319   -0.0911 H   0  0  0  0  0  0  0  0  0  0  0  0
   -0.5882    1.8430    0.6272 H   0  0  0  0  0  0  0  0  0  0  0  0
   -0.5105    1.7928   -1.0706 H   0  0  0  0  0  0  0  0  0  0  0  0
    0.0000    0.0000    0.0000 C   0  0  0  0  0  0  0  0  0  0  0  0
   -1.1345   -0.7005    0.0000 O   0  0  0  0  0  1  0  0  0  0  0  0
    1.1345   -0.6014    0.0000 O   0  0  0  0  0  0  0  0  0  0  0  0
   -0.6409    1.6768    5.8260 C   0  0  0  0  0  0  0  0  0  0  0  0
   -0.2687    2.5509    5.4071 H   0  0  0  0  0  0  0  0  0  0  0  0
   -0.1699    1.6052    6.8063 H   0  0  0  0  0  0  0  0  0  0  0  0
   -1.7272    1.7343    5.7555 H   0  0  0  0  0  0  0  0  0  0  0  0
   -0.0389    0.4485    4.7303 C   0  0  0  0  0  0  0  0  0  0  0  0
   -0.0915   -0.3416    5.2915 H   0  0  0  0  0  0  0  0  0  0  0  0
    0.9795    0.7535    4.4897 H   0  0  0  0  0  0  0  0  0  0  0  0
   -0.9188    0.3478    3.5594 C   0  0  0  0  0  0  0  0  0  0  0  0
   -0.5663   -0.3292    2.9007 H   0  0  0  0  0  0  0  0  0  0  0  0
   -1.8475    0.0642    3.8293 H   0  0  0  0  0  0  0  0  0  0  0  0
   -0.9910    1.2341    3.0852 H   0  0  0  0  0  0  0  0  0  0  0  0
  1  5  1  0
  5  6  1  0
  5  7  2  0
  1  2  1  0
  1  3  1  0
  1  4  1  0
  8 12  1  0
 12 15  1  0
  8  9  1  0
  8 10  1  0
  8 11  1  0
 12 13  1  0
 12 14  1  0
 15 16  1  0
 15 17  1  0
 15 18  1  0
M  CHG  1   6  -1
M  END
>  <PDB_ID>  (8) 
pdb3nxa

>  <RESIDUE_NAME>  (8) 
GLU   ILE

>  <FRAG_NAME>  (8) 
ACET   PRPA

>  <FRAG_ATOM_NUM>  (8) 
fragi: 7  fragj: 11

>  <atom.prop.CHAIN_ID>  (8) 
A A A A A A A Z Z Z Z Z Z Z Z Z Z Z

>  <atom.prop.IS_HEAVY_ATOM>  (8) 
1 0 0 0 1 1 1 1 0 0 0 1 0 0 1 0 0 0

>  <DIFUSE_FUNC_ATOM>  (8) 
atom 6   atom 7   

>  <FINAL_SINGLE_POINT_ENERGY>  (8) 
0

>  <NONCOV_INTER_ENERGY_QM>  (8) 
0

>  <Tinker_Supermolecular_Energy>  (8) 
-23.62

>  <QM_Energy>  (8) 
-3.12

>  <source>  (8) 
ACET_PRPA_17

>  <Index>  (8) 
24122

$$$$
ACET-pdb3nxa-A-GLU-98:PRPA-pdb3nxa-B-ILE-13
     RDKit          3D

 18 16  0  0  0  0  0  0  0  0999 V2000
    0.0575    1.5809   -0.1365 C   0  0  0  0  0  0  0  0  0  0  0  0
    0.9644    1.7971   -0.3683 H   0  0  0  0  0  0  0  0  0  0  0  0
   -0.2642    1.9336    0.6981 H   0  0  0  0  0  0  0  0  0  0  0  0
   -0.6040    1.9015   -0.9412 H   0  0  0  0  0  0  0  0  0  0  0  0
    0.0000    0.0000    0.0000 C   0  0  0  0  0  0  0  0  0  0  0  0
   -1.1858   -0.6673    0.0000 O   0  0  0  0  0  1  0  0  0  0  0  0
    1.1858   -0.4786   -0.0000 O   0  0  0  0  0  0  0  0  0  0  0  0
    1.0913    2.2756    5.7444 C   0  0  0  0  0  0  0  0  0  0  0  0
    1.4827    3.0523    5.2519 H   0  0  0  0  0  0  0  0  0  0  0  0
    1.6878    2.1959    6.6532 H   0  0  0  0  0  0  0  0  0  0  0  0
    0.0727    2.5204    6.0453 H   0  0  0  0  0  0  0  0  0  0  0  0
    0.9856    0.7423    4.8606 C   0  0  0  0  0  0  0  0  0  0  0  0
    0.7459    0.1145    5.5758 H   0  0  0  0  0  0  0  0  0  0  0  0
    1.9350    0.4841    4.3914 H   0  0  0  0  0  0  0  0  0  0  0  0
   -0.1298    0.6336    3.8727 C   0  0  0  0  0  0  0  0  0  0  0  0
   -0.1915   -0.3032    3.5201 H   0  0  0  0  0  0  0  0  0  0  0  0
   -1.0031    0.8718    4.3061 H   0  0  0  0  0  0  0  0  0  0  0  0
    0.0261    1.2570    3.1027 H   0  0  0  0  0  0  0  0  0  0  0  0
  1  5  1  0
  5  6  1  0
  5  7  2  0
  1  2  1  0
  1  3  1  0
  1  4  1  0
  8 12  1  0
 12 15  1  0
  8  9  1  0
  8 10  1  0
  8 11  1  0
 12 13  1  0
 12 14  1  0
 15 16  1  0
 15 17  1  0
 15 18  1  0
M  CHG  1   6  -1
M  END
>  <PDB_ID>  (9) 
pdb3nxa

>  <RESIDUE_NAME>  (9) 
GLU   ILE

>  <FRAG_NAME>  (9) 
ACET   PRPA

>  <FRAG_ATOM_NUM>  (9) 
fragi: 7  fragj: 11

>  <atom.prop.CHAIN_ID>  (9) 
A A A A A A A Z Z Z Z Z Z Z Z Z Z Z

>  <atom.prop.IS_HEAVY_ATOM>  (9) 
1 0 0 0 1 1 1 1 0 0 0 1 0 0 1 0 0 0

>  <DIFUSE_FUNC_ATOM>  (9) 
atom 6   atom 7   

>  <FINAL_SINGLE_POINT_ENERGY>  (9) 
0

>  <NONCOV_INTER_ENERGY_QM>  (9) 
0

>  <Tinker_Supermolecular_Energy>  (9) 
-21.77

>  <QM_Energy>  (9) 
-2.34

>  <source>  (9) 
ACET_PRPA_17

>  <Index>  (9) 
25222

$$$$
ACEH-pdb2zds-B-GLH-183:PRPA-pdb2zds-B-GLN-76
     RDKit          3D

 18 16  0  0  0  0  0  0  0  0999 V2000
   -0.0187    1.5299    0.0211 C   0  0  0  0  0  0  0  0  0  0  0  0
   -0.8824    1.8027    0.3907 H   0  0  0  0  0  0  0  0  0  0  0  0
    0.1159    1.8318   -0.9005 H   0  0  0  0  0  0  0  0  0  0  0  0
    0.7763    1.9358    0.6466 H   0  0  0  0  0  0  0  0  0  0  0  0
    0.0000    0.0000    0.0000 C   0  0  0  0  0  0  0  0  0  0  0  0
   -1.1109   -0.5755    0.0000 O   0  0  0  0  0  0  0  0  0  0  0  0
    1.1109   -0.6101    0.0000 O   0  0  0  0  0  0  0  0  0  0  0  0
    1.3866   -5.4592   -0.4308 C   0  0  0  0  0  0  0  0  0  0  0  0
    1.6771   -4.5180   -0.1958 H   0  0  0  0  0  0  0  0  0  0  0  0
    1.7497   -5.7074   -1.4281 H   0  0  0  0  0  0  0  0  0  0  0  0
    1.8007   -6.1078    0.3411 H   0  0  0  0  0  0  0  0  0  0  0  0
   -0.1702   -5.3266   -0.4904 C   0  0  0  0  0  0  0  0  0  0  0  0
   -0.5049   -5.3263   -1.4067 H   0  0  0  0  0  0  0  0  0  0  0  0
   -0.6176   -5.9745    0.0881 H   0  0  0  0  0  0  0  0  0  0  0  0
   -0.7808   -3.7805    0.1342 C   0  0  0  0  0  0  0  0  0  0  0  0
   -0.0127   -3.2485    0.0172 H   0  0  0  0  0  0  0  0  0  0  0  0
   -1.5276   -3.6663   -0.4283 H   0  0  0  0  0  0  0  0  0  0  0  0
   -0.9812   -4.1300    1.1470 H   0  0  0  0  0  0  0  0  0  0  0  0
  1  5  1  0
  5  6  2  0
  5  7  1  0
  1  2  1  0
  1  3  1  0
  1  4  1  0
  8 12  1  0
 12 15  1  0
  8  9  1  0
  8 10  1  0
  8 11  1  0
 12 13  1  0
 12 14  1  0
 15 16  1  0
 15 17  1  0
 15 18  1  0
M  CHG  1   7  -1
V    7 [O&-]
M  END
>  <PDB_ID>  (10) 
pdb2zds

>  <RESIDUE_NAME>  (10) 
GLU   GLN

>  <FRAG_NAME>  (10) 
ACET   PRPA

>  <FRAG_ATOM_NUM>  (10) 
fragi: 7 fragj: 11

>  <atom.prop.CHAIN_ID>  (10) 
A A A A A A A Z Z Z Z Z Z Z Z Z Z Z

>  <atom.prop.IS_HEAVY_ATOM>  (10) 
1 0 0 0 1 1 1 1 0 0 0 1 0 0 1 0 0 0

>  <DIFUSE_FUNC_ATOM>  (10) 
n/a

>  <FINAL_SINGLE_POINT_ENERGY>  (10) 
0

>  <NONCOV_INTER_ENERGY_QM>  (10) 
0

>  <Tinker_Supermolecular_Energy>  (10) 
-23.76

>  <QM_Energy>  (10) 
-2.77

>  <source>  (10) 
ACET_PRPA_30

>  <Index>  (10) 
5191

$$$$
