ACET-pdb2fd6-A-GLU-52:MBZ-pdb2fd6-A-PHE-57
     RDKit          3D

 22 21  0  0  0  0  0  0  0  0999 V2000
   -4.1524    5.2790   -0.9322 C   0  0  0  0  0  0  0  0  0  0  0  0
   -3.8112    5.6595   -1.7659 H   0  0  0  0  0  0  0  0  0  0  0  0
   -4.0870    5.8936   -0.1741 H   0  0  0  0  0  0  0  0  0  0  0  0
   -5.1983    5.0075   -1.0748 H   0  0  0  0  0  0  0  0  0  0  0  0
   -3.3201    4.0637   -0.6082 C   0  0  0  0  0  0  0  0  0  0  0  0
   -3.5594    3.4451    0.4518 O   0  0  0  0  0  1  0  0  0  0  0  0
   -2.4377    3.7172   -1.4184 O   0  0  0  0  0  0  0  0  0  0  0  0
    0.0009    2.9108    0.0191 C   0  0  0  0  0  0  0  0  0  0  0  0
   -0.7486    3.2246   -0.5435 H   0  0  0  0  0  0  0  0  0  0  0  0
    0.8713    3.2207   -0.3325 H   0  0  0  0  0  0  0  0  0  0  0  0
   -0.1274    3.3395    1.0129 H   0  0  0  0  0  0  0  0  0  0  0  0
   -0.0001    1.4047   -0.0000 C   0  0  0  0  0  0  0  0  0  0  0  0
   -1.1988    0.6957    0.0007 C   0  0  0  0  0  0  0  0  0  0  0  0
   -2.0646    1.1844    0.0002 H   0  0  0  0  0  0  0  0  0  0  0  0
   -1.2037   -0.6990    0.0000 C   0  0  0  0  0  0  0  0  0  0  0  0
   -2.0788   -1.1920    0.0013 H   0  0  0  0  0  0  0  0  0  0  0  0
    0.0021   -1.3971   -0.0011 C   0  0  0  0  0  0  0  0  0  0  0  0
   -0.0024   -2.3944   -0.0037 H   0  0  0  0  0  0  0  0  0  0  0  0
    1.2037   -0.6986    0.0000 C   0  0  0  0  0  0  0  0  0  0  0  0
    2.0855   -1.1943    0.0020 H   0  0  0  0  0  0  0  0  0  0  0  0
    1.1968    0.6942    0.0004 C   0  0  0  0  0  0  0  0  0  0  0  0
    2.0652    1.1911    0.0000 H   0  0  0  0  0  0  0  0  0  0  0  0
  1  5  1  0
  5  6  1  0
  5  7  2  0
  1  2  1  0
  1  3  1  0
  1  4  1  0
  8 12  1  0
 12 13  2  0
 13 15  1  0
 15 17  2  0
 17 19  1  0
 19 21  2  0
 21 12  1  0
  8  9  1  0
  8 10  1  0
  8 11  1  0
 13 14  1  0
 15 16  1  0
 17 18  1  0
 19 20  1  0
 21 22  1  0
M  CHG  1   6  -1
M  END
>  <PDB_ID>  (25) 
pdb2fd6

>  <RESIDUE_NAME>  (25) 
GLU   PHE

>  <FRAG_NAME>  (25) 
ACET   MBZ

>  <FRAG_ATOM_NUM>  (25) 
fragi: 7  fragj: 15

>  <atom.prop.CHAIN_ID>  (25) 
A A A A A A A Z Z Z Z Z Z Z Z Z Z Z Z Z Z Z

>  <atom.prop.IS_HEAVY_ATOM>  (25) 
1 0 0 0 1 1 1 1 0 0 0 1 1 0 1 0 1 0 1 0 1 0

>  <DIFUSE_FUNC_ATOM>  (25) 
atom 6   atom 7   

>  <FINAL_SINGLE_POINT_ENERGY>  (25) 
0

>  <NONCOV_INTER_ENERGY_QM>  (25) 
0

>  <FF_Energy>  (25) 
6.79

>  <QM_Energy>  (25) 
-8.29

>  <source>  (25) 
ACET_MBZ_00

>  <Index>  (25) 
10329