ACET-pdb3ctv-A-ASP-44:MBZ-pdb3ctv-A-PHE-58
     RDKit          3D

 22 21  0  0  0  0  0  0  0  0999 V2000
   -4.9591    3.1284   -1.6911 C   0  0  0  0  0  0  0  0  0  0  0  0
   -4.7234    2.8139   -2.6000 H   0  0  0  0  0  0  0  0  0  0  0  0
   -5.4155    4.0067   -1.7268 H   0  0  0  0  0  0  0  0  0  0  0  0
   -5.6466    2.4063   -1.2507 H   0  0  0  0  0  0  0  0  0  0  0  0
   -3.6702    3.2812   -0.8797 C   0  0  0  0  0  0  0  0  0  0  0  0
   -3.5701    2.6654    0.2037 O   0  0  0  0  0  1  0  0  0  0  0  0
   -2.7534    4.0122   -1.3255 O   0  0  0  0  0  0  0  0  0  0  0  0
    0.0021    2.9177    0.0051 C   0  0  0  0  0  0  0  0  0  0  0  0
   -0.7691    3.2200   -0.5296 H   0  0  0  0  0  0  0  0  0  0  0  0
    0.8578    3.2192   -0.3826 H   0  0  0  0  0  0  0  0  0  0  0  0
   -0.0880    3.3509    1.0013 H   0  0  0  0  0  0  0  0  0  0  0  0
    0.0019    1.4007   -0.0002 C   0  0  0  0  0  0  0  0  0  0  0  0
   -1.1955    0.6884   -0.0008 C   0  0  0  0  0  0  0  0  0  0  0  0
   -2.0621    1.1812   -0.0027 H   0  0  0  0  0  0  0  0  0  0  0  0
   -1.1990   -0.6969    0.0000 C   0  0  0  0  0  0  0  0  0  0  0  0
   -2.0765   -1.1912    0.0015 H   0  0  0  0  0  0  0  0  0  0  0  0
   -0.0036   -1.3853    0.0008 C   0  0  0  0  0  0  0  0  0  0  0  0
   -0.0039   -2.3886    0.0010 H   0  0  0  0  0  0  0  0  0  0  0  0
    1.1990   -0.6937    0.0000 C   0  0  0  0  0  0  0  0  0  0  0  0
    2.0777   -1.1985    0.0006 H   0  0  0  0  0  0  0  0  0  0  0  0
    1.1972    0.6868    0.0002 C   0  0  0  0  0  0  0  0  0  0  0  0
    2.0659    1.1867   -0.0005 H   0  0  0  0  0  0  0  0  0  0  0  0
  1  5  1  0
  5  6  1  0
  5  7  2  0
  1  2  1  0
  1  3  1  0
  1  4  1  0
  8 12  1  0
 12 13  2  0
 13 15  1  0
 15 17  2  0
 17 19  1  0
 19 21  2  0
 21 12  1  0
  8  9  1  0
  8 10  1  0
  8 11  1  0
 13 14  1  0
 15 16  1  0
 17 18  1  0
 19 20  1  0
 21 22  1  0
M  CHG  1   6  -1
M  END
>  <PDB_ID>  (1234) 
pdb3ctv

>  <RESIDUE_NAME>  (1234) 
ASP   PHE

>  <FRAG_NAME>  (1234) 
ACET   MBZ

>  <FRAG_ATOM_NUM>  (1234) 
fragi: 7  fragj: 15

>  <atom.prop.CHAIN_ID>  (1234) 
A A A A A A A Z Z Z Z Z Z Z Z Z Z Z Z Z Z Z

>  <atom.prop.IS_HEAVY_ATOM>  (1234) 
1 0 0 0 1 1 1 1 0 0 0 1 1 0 1 0 1 0 1 0 1 0

>  <DIFUSE_FUNC_ATOM>  (1234) 
atom 6   atom 7   

>  <FINAL_SINGLE_POINT_ENERGY>  (1234) 
0

>  <NONCOV_INTER_ENERGY_QM>  (1234) 
0

>  <FF_Energy>  (1234) 
1.57

>  <QM_Energy>  (1234) 
-9.46

>  <source>  (1234) 
ACET_MBZ_01

>  <Index>  (1234) 
8447